# RIV package for  MODFLOW-2005, generated by Flopy.
        40         0
        40         0 # stress period 1
         open/close ./RIV_0000.dat
        40         0 # stress period 2
         open/close ./RIV_0001.dat
        40         0 # stress period 3
         open/close ./RIV_0002.dat
