MODPATH_PATHLINE_FILE 6 0                                                       
 1   0.0000000E+00
END HEADER
         1     1    -1     2   0.1826000E+04   0.6250000E+03   0.6375000E+04   0.3500000E+02    1   15    3  1  0.5000000E+00   0.5000000E+00   0.1000000E+01     1
         1     1    -1     3   0.1826000E+04   0.6250000E+03   0.6375000E+04   0.3500000E+02    1   15    3  1  0.5000000E+00   0.5000000E+00   0.1000000E+01     2
         1     1    -1     3   0.2231140E+04   0.6340823E+03   0.6250000E+04   0.3497541E+02    1   16    3  1  0.5363290E+00   0.1000000E+01   0.9990000E+00     2
         1     1    -1     3   0.2878566E+04   0.6443003E+03   0.6000000E+04   0.3497422E+02    1   17    3  1  0.5772013E+00   0.1000000E+01   0.9990000E+00     2
         1     1    -1     3   0.3408049E+04   0.6374020E+03   0.5750000E+04   0.3497192E+02    1   18    3  1  0.5496082E+00   0.1000000E+01   0.9990000E+00     2
         1     1    -1     3   0.3867591E+04   0.6408633E+03   0.5500000E+04   0.3497106E+02    1   19    3  1  0.5634532E+00   0.1000000E+01   0.9990000E+00     2
         1     1    -1     3   0.4246174E+04   0.6466940E+03   0.5250000E+04   0.3496899E+02    1   20    3  1  0.5867761E+00   0.1000000E+01   0.9990000E+00     2
         1     1    -1     3   0.4585622E+04   0.6568495E+03   0.5000000E+04   0.3497288E+02    1   21    3  1  0.6273982E+00   0.1000000E+01   0.9990000E+00     2
         1     1    -1     3   0.4854362E+04   0.6805256E+03   0.4750000E+04   0.3496973E+02    1   22    3  1  0.7221023E+00   0.1000000E+01   0.9990000E+00     2
         1     1    -1     3   0.5131869E+04   0.7202520E+03   0.4500000E+04   0.3497047E+02    1   23    3  1  0.8810079E+00   0.1000000E+01   0.9990000E+00     2
         1     1    -1     3   0.5206950E+04   0.7500000E+03   0.4428311E+04   0.3497364E+02    1   23    4  1  0.0000000E+00   0.7132441E+00   0.9990000E+00     2
         1     1    -1     3   0.5389699E+04   0.8462340E+03   0.4250000E+04   0.3497438E+02    1   24    4  1  0.3849359E+00   0.1000000E+01   0.9990000E+00     2
         1     1    -1     3   0.5596498E+04   0.1000000E+04   0.4080554E+04   0.3497601E+02    1   24    5  1  0.0000000E+00   0.3222159E+00   0.9990000E+00     2
         1     1    -1     3   0.5705149E+04   0.1107615E+04   0.4000000E+04   0.3497611E+02    1   25    5  1  0.4304599E+00   0.1000000E+01   0.9990000E+00     2
         1     1    -1     3   0.5861153E+04   0.1250000E+04   0.3897045E+04   0.3497024E+02    1   25    6  1  0.0000000E+00   0.5881789E+00   0.9990000E+00     2
         1     1    -1     3   0.6161035E+04   0.1500000E+04   0.3810056E+04   0.3497080E+02    1   25    7  1  0.0000000E+00   0.2402260E+00   0.9990000E+00     2
         1     1    -1     3   0.6453632E+04   0.1750000E+04   0.3771869E+04   0.3497060E+02    1   25    8  1  0.0000000E+00   0.8747423E-01   0.9990000E+00     2
         1     1    -1     3   0.6624410E+04   0.1883541E+04   0.3750000E+04   0.3496904E+02    1   26    8  1  0.5341619E+00   0.1000000E+01   0.9990000E+00     2
         1     1    -1     3   0.6775811E+04   0.2000000E+04   0.3730252E+04   0.3496846E+02    1   26    9  1  0.0000000E+00   0.9210082E+00   0.9990000E+00     2
         1     1    -1     3   0.7076550E+04   0.2250000E+04   0.3690188E+04   0.3496770E+02    1   26   10  1  0.0000000E+00   0.7607504E+00   0.9990000E+00     2
         1     1    -1     3   0.7538187E+04   0.2500000E+04   0.3627673E+04   0.3496545E+02    1   26   11  1  0.0000000E+00   0.5106937E+00   0.9990000E+00     2
         1     1    -1     3   0.8245855E+04   0.2750000E+04   0.3558905E+04   0.3496564E+02    1   26   12  1  0.0000000E+00   0.2356189E+00   0.9990000E+00     2
         1     1    -1     3   0.8726333E+04   0.2972603E+04   0.3500000E+04   0.3496554E+02    1   27   12  1  0.8904127E+00   0.1000000E+01   0.9990000E+00     2
         1     1    -1     3   0.8778377E+04   0.3000000E+04   0.3493612E+04   0.3496542E+02    1   27   13  1  0.0000000E+00   0.9744495E+00   0.9990000E+00     2
         1     1    -1     3   0.9234017E+04   0.3250000E+04   0.3424616E+04   0.3496547E+02    1   27   14  1  0.0000000E+00   0.6984645E+00   0.9990000E+00     2
         1     1    -1     3   0.9652438E+04   0.3500000E+04   0.3352089E+04   0.3496539E+02    1   27   15  1  0.0000000E+00   0.4083570E+00   0.9990000E+00     2
         1     1    -1     3   0.1020778E+05   0.3642993E+04   0.3250000E+04   0.3496521E+02    1   28   15  1  0.5719721E+00   0.1000000E+01   0.9990000E+00     2
         1     1    -1     3   0.1160677E+05   0.3662550E+04   0.3000000E+04   0.3496569E+02    1   29   15  1  0.6501983E+00   0.1000000E+01   0.9990000E+00     2
         1     1    -1     3   0.1302239E+05   0.3661782E+04   0.2750000E+04   0.3496502E+02    1   30   15  1  0.6471282E+00   0.1000000E+01   0.9990000E+00     2
         1     1    -1     3   0.1444730E+05   0.3656856E+04   0.2500000E+04   0.3496541E+02    1   31   15  1  0.6274231E+00   0.1000000E+01   0.9990000E+00     2
         1     1    -1     3   0.1589135E+05   0.3647500E+04   0.2250000E+04   0.3496557E+02    1   32   15  1  0.5900022E+00   0.1000000E+01   0.9990000E+00     2
         1     1    -1     3   0.1738228E+05   0.3633199E+04   0.2000000E+04   0.3496571E+02    1   33   15  1  0.5327983E+00   0.1000000E+01   0.9990000E+00     2
         1     1    -1     3   0.1888135E+05   0.3607107E+04   0.1750000E+04   0.3496569E+02    1   34   15  1  0.4284291E+00   0.1000000E+01   0.9990000E+00     2
         1     1    -1     3   0.2043013E+05   0.3581697E+04   0.1500000E+04   0.3496559E+02    1   35   15  1  0.3267866E+00   0.1000000E+01   0.9990000E+00     2
         1     1    -1     3   0.2205337E+05   0.3605365E+04   0.1250000E+04   0.3496525E+02    1   36   15  1  0.4214585E+00   0.1000000E+01   0.9990000E+00     2
         1     1    -1     3   0.2369298E+05   0.3627422E+04   0.1000000E+04   0.3496507E+02    1   37   15  1  0.5096878E+00   0.1000000E+01   0.9990000E+00     2
         1     1    -1     3   0.2529958E+05   0.3637082E+04   0.7500000E+03   0.3496537E+02    1   38   15  1  0.5483285E+00   0.1000000E+01   0.9990000E+00     2
         1     1    -1     3   0.2696945E+05   0.3642485E+04   0.5000000E+03   0.3496568E+02    1   39   15  1  0.5699392E+00   0.1000000E+01   0.9990000E+00     2
         1     1    -1     3   0.2951705E+05   0.3639620E+04   0.2500000E+03   0.3496551E+02    1   40   15  1  0.5584788E+00   0.1000000E+01   0.9990000E+00     2
         1     1    -1     3   0.2951705E+05   0.3639620E+04   0.2500000E+03   0.3496551E+02    1   40   15  1  0.5584788E+00   0.1000000E+01   0.9990000E+00     2
