                                  MODFLOW-NWT-SWR1 
      U.S. GEOLOGICAL SURVEY MODULAR FINITE-DIFFERENCE GROUNDWATER-FLOW MODEL
                            VERSION 1.1.1, 7/21/2016
                    BASED ON MODFLOW-2005 VERSION 1.11.00 08/30/2013

 LIST FILE: freyberg.list
                         UNIT    2

 OPENING freyberg.dis
 FILE TYPE:DIS   UNIT   11   STATUS:OLD    
 FORMAT:FORMATTED              ACCESS:SEQUENTIAL          

 OPENING freyberg.bas
 FILE TYPE:BAS6   UNIT   13   STATUS:OLD    
 FORMAT:FORMATTED              ACCESS:SEQUENTIAL          

 OPENING freyberg.hyd
 FILE TYPE:HYD   UNIT   36   STATUS:OLD    
 FORMAT:FORMATTED              ACCESS:SEQUENTIAL          

 OPENING freyberg.rch
 FILE TYPE:RCH   UNIT   19   STATUS:OLD    
 FORMAT:FORMATTED              ACCESS:SEQUENTIAL          

 OPENING freyberg.wel
 FILE TYPE:WEL   UNIT   20   STATUS:OLD    
 FORMAT:FORMATTED              ACCESS:SEQUENTIAL          

 OPENING freyberg.riv
 FILE TYPE:RIV   UNIT   18   STATUS:OLD    
 FORMAT:FORMATTED              ACCESS:SEQUENTIAL          

 OPENING freyberg.oc
 FILE TYPE:OC   UNIT   14   STATUS:OLD    
 FORMAT:FORMATTED              ACCESS:SEQUENTIAL          

 OPENING freyberg.upw
 FILE TYPE:UPW   UNIT   31   STATUS:OLD    
 FORMAT:FORMATTED              ACCESS:SEQUENTIAL          

 OPENING freyberg.nwt
 FILE TYPE:NWT   UNIT   32   STATUS:OLD    
 FORMAT:FORMATTED              ACCESS:SEQUENTIAL          

 OPENING freyberg.hyd.bin
 FILE TYPE:DATA(BINARY)   UNIT  536   STATUS:REPLACE
 FORMAT:UNFORMATTED            ACCESS:STREAM              

 OPENING freyberg.cbc
 FILE TYPE:DATA(BINARY)   UNIT   53   STATUS:REPLACE
 FORMAT:UNFORMATTED            ACCESS:STREAM              

 OPENING freyberg.hds
 FILE TYPE:DATA(BINARY)   UNIT   51   STATUS:REPLACE
 FORMAT:UNFORMATTED            ACCESS:STREAM              

 BAS -- BASIC PACKAGE, VERSION 1.1.1, 7/28/2016 INPUT READ FROM UNIT   13
 
 MODFLOW was compiled using mixed precision
 Precision of REAL variables:           6
 Precision of DOUBLE PRECISION variables:          15

 DISCRETIZATION INPUT DATA READ FROM UNIT   11
 # DIS package for  MODFLOW-2005, generated by Flopy.
    1 LAYERS        40 ROWS        20 COLUMNS
    3 STRESS PERIOD(S) IN SIMULATION
 MODEL TIME UNIT IS DAYS
 MODEL LENGTH UNIT IS METERS
  Confining bed flag for each layer:
   0



                               DELR
 READING ON UNIT   11 WITH FORMAT: (20E15.6)           



                               DELC
 READING ON UNIT   11 WITH FORMAT: (40E15.6)           

 TOP ELEVATION OF LAYER 1 =   35.0000    



             MODEL LAYER BOTTOM EL. FOR LAYER   1
 READING ON UNIT   11 WITH FORMAT: (FREE)              


 STRESS PERIOD     LENGTH       TIME STEPS     MULTIPLIER FOR DELT    SS FLAG
 ----------------------------------------------------------------------------
        1         1.000000          1                    1.000         SS
        2         1825.000          1                    1.000         TR
        3         1.000000          1                    1.000         SS

 COMBINED STEADY-STATE AND TRANSIENT SIMULATION



 
 # BAS6 package for  MODFLOW-2005, generated by Flopy.                           
 THE FREE FORMAT OPTION HAS BEEN SELECTED



                     BOUNDARY ARRAY FOR LAYER   1
 READING ON UNIT   13 WITH FORMAT: (FREE)              

 AQUIFER HEAD WILL BE SET TO  -999.99     AT ALL NO-FLOW NODES (IBOUND=0).



                       INITIAL HEAD FOR LAYER   1
 READING ON UNIT   13 WITH FORMAT: (FREE)              
 # OC package for  MODFLOW-2005, generated by Flopy.

 OUTPUT CONTROL IS SPECIFIED ONLY AT TIME STEPS FOR WHICH OUTPUT IS DESIRED
 COMPACT CELL-BY-CELL BUDGET FILES WILL BE WRITTEN
 AUXILIARY DATA WILL BE SAVED IN CELL-BY-CELL BUDGET FILES
 HEAD PRINT FORMAT CODE IS   0    DRAWDOWN PRINT FORMAT CODE IS   0
 HEADS WILL BE SAVED ON UNIT   51    DRAWDOWNS WILL BE SAVED ON UNIT    0
 # NWT package for  MODFLOW-NWT, generated by Flopy.

 NWT1 -- Newton Solver, VERSION 1.1.1, 7/28/2016
         INPUT READ FROM UNIT 32

 COMPLEX OPTION:
 DEFAULT SOLVER INPUT VALUES REFLECT STRONGLY NONLINEAR MODEL
 ***GMRES linear solver will be used***
 
   CONVERGENCE CRITERION OF   0.100000E-01 FOR HEAD SOLUTION
   AND A TOLERANCE OF   0.500000E+03 FOR FLOW SOLUTION AND 
   A MAXIMUM OF   100 OUTER ITERATIONS. 


   D-B-D REDUCTION FACTOR OF    0.850000E+00 AND 
   A D-B-D INCREASE FACTOR OF    0.100000E-04 AND 
   A D-B-D RELAXATION OF    0.000000E+00 AND 
   A MOMENTUM FACTOR OF    0.100000E+00 .


   BACKTRACKING IS ACTIVE 
   THE MAXIMUM NUMBER OF BACKTRACKS IS    50 AND 
   THE BACKTRACKING TOLERANCE IS    0.110000E+01 AND
   THE BACKTRACKING REDUCTION FACTOR IS    0.700000E+00

 GMRES -- LINEAR SOLUTION BY GMRES PACKAGE 
     adapted for HYDROTHERM by Kipp and others (2008)
     using software originally developed by Saad (1990) 32
     using algorithms described in Saad (2003)

 UPW1 -- UPSTREAM WEIGHTING FLOW PACKAGE, VERSION 1.1.1, 7/28/2016
         INPUT READ FROM UNIT 31

 # UPW package for  MODFLOW-NWT, generated by Flopy.
 CELL-BY-CELL FLOWS WILL BE SAVED ON UNIT   53
 No named parameters

   LAYER FLAGS:
 LAYER       LAYTYP          LAYAVG    CHANI           LAYVKA           LAYWET
 ---------------------------------------------------------------------------
    1             1             0     1.000E+00             0             0

   INTERPRETATION OF LAYER FLAGS:
                        INTERBLOCK     HORIZONTAL    DATA IN
         LAYER TYPE   TRANSMISSIVITY   ANISOTROPY   ARRAY VKA   WETTABILITY
 LAYER   (LAYTYP)        (LAYAVG)      (CHANI)     (LAYVKA)       (LAYWET)
 ---------------------------------------------------------------------------
    1   CONVERTIBLE      HARMONIC     1.000E+00    VERTICAL K  NON-WETTABLE



              HYD. COND. ALONG ROWS FOR LAYER   1
 READING ON UNIT   31 WITH FORMAT: (FREE)              



                VERTICAL HYD. COND. FOR LAYER   1
 READING ON UNIT   31 WITH FORMAT: (FREE)              



                   SPECIFIC STORAGE FOR LAYER   1
 READING ON UNIT   31 WITH FORMAT: (FREE)              



                     SPECIFIC YIELD FOR LAYER   1
 READING ON UNIT   31 WITH FORMAT: (FREE)              

 WEL -- WELL PACKAGE FOR NWT VERSION 1.1.1,  7/28/2016 INPUT READ FROM UNIT   20
 # WEL package for  MODFLOW-2005, generated by Flopy.
 No named parameters
 MAXIMUM OF      6 ACTIVE WELLS AT ONE TIME


     0 Well parameters

 RIV -- RIVER PACKAGE, VERSION 7, 5/2/2005 INPUT READ FROM UNIT   18
 # RIV package for  MODFLOW-2005, generated by Flopy.
 No named parameters
 MAXIMUM OF     40 ACTIVE RIVER REACHES AT ONE TIME


     0 River parameters

 RCH -- RECHARGE PACKAGE, VERSION 7, 5/2/2005 INPUT READ FROM UNIT   19
 # RCH package for  MODFLOW-2005, generated by Flopy.
 No named parameters
 OPTION 3 -- RECHARGE TO HIGHEST ACTIVE NODE IN EACH VERTICAL COLUMN


     0 Recharge parameters

 HYD -- HYDROGRAPH DATA FOR BAS PACKAGE, VERSION 7, 07/14/2006
         INPUT READ FROM UNIT 36
 HYDROGRAPH VALUES WILL BE SAVED ON UNIT: 536
 HYDROGRAPH VALUES AT DRY CELLS WILL BE:  -1.00000E+10

 ARR INTYP  KLAY     XL            YL         HYDLBL
 ----------------------------------------------------------------
 HD   C      1   1.25000E+02   9.87500E+03  HDC001pr01c01       
 HD   C      1   3.75000E+02   9.87500E+03  HDC001pr01c02       
 HD   C      1   6.25000E+02   9.87500E+03  HDC001pr01c03       
 HD   C      1   8.75000E+02   9.87500E+03  HDC001pr01c04       
 HD   C      1   1.12500E+03   9.87500E+03  HDC001pr01c05       
 HD   C      1   1.37500E+03   9.87500E+03  HDC001pr01c06       
 HD   C      1   1.62500E+03   9.87500E+03  HDC001pr01c07       
 HD   C      1   1.87500E+03   9.87500E+03  HDC001pr01c08       
 HD   C      1   2.12500E+03   9.87500E+03  HDC001pr01c09       
 HD   C      1   2.37500E+03   9.87500E+03  HDC001pr01c10       
 HD   C      1   2.62500E+03   9.87500E+03  HDC001pr01c11       
 HD   C      1   2.87500E+03   9.87500E+03  HDC001pr01c12       
 HD   C      1   3.12500E+03   9.87500E+03  HDC001pr01c13       
 HD   C      1   3.37500E+03   9.87500E+03  HDC001pr01c14       
 HD   C      1   3.62500E+03   9.87500E+03  HDC001pr01c15       
 HD   C      1   3.87500E+03   9.87500E+03  HDC001pr01c16       
 HD   C      1   4.12500E+03   9.87500E+03  HDC001pr01c17       
 HD   C      1   4.37500E+03   9.87500E+03  HDC001pr01c18       
 HD   C      1   4.62500E+03   9.87500E+03  HDC001pr01c19       
 HD   C      1   4.87500E+03   9.87500E+03  HDC001pr01c20       
 HD   C      1   1.25000E+02   9.62500E+03  HDC001pr02c01       
 HD   C      1   3.75000E+02   9.62500E+03  HDC001pr02c02       
 HD   C      1   6.25000E+02   9.62500E+03  HDC001pr02c03       
 HD   C      1   8.75000E+02   9.62500E+03  HDC001pr02c04       
 HD   C      1   1.12500E+03   9.62500E+03  HDC001pr02c05       
 HD   C      1   1.37500E+03   9.62500E+03  HDC001pr02c06       
 HD   C      1   1.62500E+03   9.62500E+03  HDC001pr02c07       
 HD   C      1   1.87500E+03   9.62500E+03  HDC001pr02c08       
 HD   C      1   2.12500E+03   9.62500E+03  HDC001pr02c09       
 HD   C      1   2.37500E+03   9.62500E+03  HDC001pr02c10       
 HD   C      1   2.62500E+03   9.62500E+03  HDC001pr02c11       
 HD   C      1   2.87500E+03   9.62500E+03  HDC001pr02c12       
 HD   C      1   3.12500E+03   9.62500E+03  HDC001pr02c13       
 HD   C      1   3.37500E+03   9.62500E+03  HDC001pr02c14       
 HD   C      1   3.62500E+03   9.62500E+03  HDC001pr02c15       
 HD   C      1   3.87500E+03   9.62500E+03  HDC001pr02c16       
 HD   C      1   4.12500E+03   9.62500E+03  HDC001pr02c17       
 HD   C      1   4.37500E+03   9.62500E+03  HDC001pr02c18       
 HD   C      1   4.62500E+03   9.62500E+03  HDC001pr02c19       
 HD   C      1   4.87500E+03   9.62500E+03  HDC001pr02c20       
 HD   C      1   1.25000E+02   9.37500E+03  HDC001pr03c01       
 HD   C      1   3.75000E+02   9.37500E+03  HDC001pr03c02       
 HD   C      1   6.25000E+02   9.37500E+03  HDC001pr03c03       
 HD   C      1   8.75000E+02   9.37500E+03  HDC001pr03c04       
 HD   C      1   1.12500E+03   9.37500E+03  HDC001pr03c05       
 HD   C      1   1.37500E+03   9.37500E+03  HDC001pr03c06       
 HD   C      1   1.62500E+03   9.37500E+03  HDC001pr03c07       
 HD   C      1   1.87500E+03   9.37500E+03  HDC001pr03c08       
 HD   C      1   2.12500E+03   9.37500E+03  HDC001pr03c09       
 HD   C      1   2.37500E+03   9.37500E+03  HDC001cr03c10       
 HD   C      1   2.37500E+03   9.37500E+03  HDC001fr03c10       
 HD   C      1   2.62500E+03   9.37500E+03  HDC001pr03c11       
 HD   C      1   2.87500E+03   9.37500E+03  HDC001pr03c12       
 HD   C      1   3.12500E+03   9.37500E+03  HDC001pr03c13       
 HD   C      1   3.37500E+03   9.37500E+03  HDC001pr03c14       
 HD   C      1   3.62500E+03   9.37500E+03  HDC001pr03c15       
 HD   C      1   3.87500E+03   9.37500E+03  HDC001cr03c16       
 HD   C      1   3.87500E+03   9.37500E+03  HDC001fr03c16       
 HD   C      1   4.12500E+03   9.37500E+03  HDC001pr03c17       
 HD   C      1   4.37500E+03   9.37500E+03  HDC001pr03c18       
 HD   C      1   4.62500E+03   9.37500E+03  HDC001pr03c19       
 HD   C      1   4.87500E+03   9.37500E+03  HDC001pr03c20       
 HD   C      1   1.25000E+02   9.12500E+03  HDC001pr04c01       
 HD   C      1   3.75000E+02   9.12500E+03  HDC001pr04c02       
 HD   C      1   6.25000E+02   9.12500E+03  HDC001pr04c03       
 HD   C      1   8.75000E+02   9.12500E+03  HDC001pr04c04       
 HD   C      1   1.12500E+03   9.12500E+03  HDC001pr04c05       
 HD   C      1   1.37500E+03   9.12500E+03  HDC001pr04c06       
 HD   C      1   1.62500E+03   9.12500E+03  HDC001pr04c07       
 HD   C      1   1.87500E+03   9.12500E+03  HDC001pr04c08       
 HD   C      1   2.12500E+03   9.12500E+03  HDC001cr04c09       
 HD   C      1   2.12500E+03   9.12500E+03  HDC001fr04c09       
 HD   C      1   2.37500E+03   9.12500E+03  HDC001pr04c10       
 HD   C      1   2.62500E+03   9.12500E+03  HDC001pr04c11       
 HD   C      1   2.87500E+03   9.12500E+03  HDC001pr04c12       
 HD   C      1   3.12500E+03   9.12500E+03  HDC001pr04c13       
 HD   C      1   3.37500E+03   9.12500E+03  HDC001pr04c14       
 HD   C      1   3.62500E+03   9.12500E+03  HDC001pr04c15       
 HD   C      1   3.87500E+03   9.12500E+03  HDC001pr04c16       
 HD   C      1   4.12500E+03   9.12500E+03  HDC001pr04c17       
 HD   C      1   4.37500E+03   9.12500E+03  HDC001pr04c18       
 HD   C      1   4.62500E+03   9.12500E+03  HDC001pr04c19       
 HD   C      1   4.87500E+03   9.12500E+03  HDC001pr04c20       
 HD   C      1   1.25000E+02   8.87500E+03  HDC001pr05c01       
 HD   C      1   3.75000E+02   8.87500E+03  HDC001pr05c02       
 HD   C      1   6.25000E+02   8.87500E+03  HDC001pr05c03       
 HD   C      1   8.75000E+02   8.87500E+03  HDC001pr05c04       
 HD   C      1   1.12500E+03   8.87500E+03  HDC001pr05c05       
 HD   C      1   1.37500E+03   8.87500E+03  HDC001pr05c06       
 HD   C      1   1.62500E+03   8.87500E+03  HDC001pr05c07       
 HD   C      1   1.87500E+03   8.87500E+03  HDC001pr05c08       
 HD   C      1   2.12500E+03   8.87500E+03  HDC001pr05c09       
 HD   C      1   2.37500E+03   8.87500E+03  HDC001pr05c10       
 HD   C      1   2.62500E+03   8.87500E+03  HDC001pr05c11       
 HD   C      1   2.87500E+03   8.87500E+03  HDC001pr05c12       
 HD   C      1   3.12500E+03   8.87500E+03  HDC001pr05c13       
 HD   C      1   3.37500E+03   8.87500E+03  HDC001pr05c14       
 HD   C      1   3.62500E+03   8.87500E+03  HDC001pr05c15       
 HD   C      1   3.87500E+03   8.87500E+03  HDC001pr05c16       
 HD   C      1   4.12500E+03   8.87500E+03  HDC001pr05c17       
 HD   C      1   4.37500E+03   8.87500E+03  HDC001pr05c18       
 HD   C      1   4.62500E+03   8.87500E+03  HDC001pr05c19       
 HD   C      1   4.87500E+03   8.87500E+03  HDC001pr05c20       
 HD   C      1   1.25000E+02   8.62500E+03  HDC001pr06c01       
 HD   C      1   3.75000E+02   8.62500E+03  HDC001pr06c02       
 HD   C      1   6.25000E+02   8.62500E+03  HDC001pr06c03       
 HD   C      1   8.75000E+02   8.62500E+03  HDC001pr06c04       
 HD   C      1   1.12500E+03   8.62500E+03  HDC001pr06c05       
 HD   C      1   1.37500E+03   8.62500E+03  HDC001pr06c06       
 HD   C      1   1.62500E+03   8.62500E+03  HDC001pr06c07       
 HD   C      1   1.87500E+03   8.62500E+03  HDC001pr06c08       
 HD   C      1   2.12500E+03   8.62500E+03  HDC001pr06c09       
 HD   C      1   2.37500E+03   8.62500E+03  HDC001pr06c10       
 HD   C      1   2.62500E+03   8.62500E+03  HDC001pr06c11       
 HD   C      1   2.87500E+03   8.62500E+03  HDC001pr06c12       
 HD   C      1   3.12500E+03   8.62500E+03  HDC001pr06c13       
 HD   C      1   3.37500E+03   8.62500E+03  HDC001pr06c14       
 HD   C      1   3.62500E+03   8.62500E+03  HDC001pr06c15       
 HD   C      1   3.87500E+03   8.62500E+03  HDC001pr06c16       
 HD   C      1   4.12500E+03   8.62500E+03  HDC001pr06c17       
 HD   C      1   4.37500E+03   8.62500E+03  HDC001pr06c18       
 HD   C      1   4.62500E+03   8.62500E+03  HDC001pr06c19       
 HD   C      1   4.87500E+03   8.62500E+03  HDC001pr06c20       
 HD   C      1   1.25000E+02   8.37500E+03  HDC001pr07c01       
 HD   C      1   3.75000E+02   8.37500E+03  HDC001pr07c02       
 HD   C      1   6.25000E+02   8.37500E+03  HDC001pr07c03       
 HD   C      1   8.75000E+02   8.37500E+03  HDC001pr07c04       
 HD   C      1   1.12500E+03   8.37500E+03  HDC001pr07c05       
 HD   C      1   1.37500E+03   8.37500E+03  HDC001pr07c06       
 HD   C      1   1.62500E+03   8.37500E+03  HDC001pr07c07       
 HD   C      1   1.87500E+03   8.37500E+03  HDC001pr07c08       
 HD   C      1   2.12500E+03   8.37500E+03  HDC001pr07c09       
 HD   C      1   2.37500E+03   8.37500E+03  HDC001pr07c10       
 HD   C      1   2.62500E+03   8.37500E+03  HDC001pr07c11       
 HD   C      1   2.87500E+03   8.37500E+03  HDC001pr07c12       
 HD   C      1   3.12500E+03   8.37500E+03  HDC001pr07c13       
 HD   C      1   3.37500E+03   8.37500E+03  HDC001pr07c14       
 HD   C      1   3.62500E+03   8.37500E+03  HDC001pr07c15       
 HD   C      1   3.87500E+03   8.37500E+03  HDC001pr07c16       
 HD   C      1   4.12500E+03   8.37500E+03  HDC001pr07c17       
 HD   C      1   4.37500E+03   8.37500E+03  HDC001pr07c18       
 HD   C      1   4.62500E+03   8.37500E+03  HDC001pr07c19       
 HD   C      1   4.87500E+03   8.37500E+03  HDC001pr07c20       
 HD   C      1   1.25000E+02   8.12500E+03  HDC001pr08c01       
 HD   C      1   3.75000E+02   8.12500E+03  HDC001pr08c02       
 HD   C      1   6.25000E+02   8.12500E+03  HDC001pr08c03       
 HD   C      1   8.75000E+02   8.12500E+03  HDC001pr08c04       
 HD   C      1   1.12500E+03   8.12500E+03  HDC001pr08c05       
 HD   C      1   1.37500E+03   8.12500E+03  HDC001pr08c06       
 HD   C      1   1.62500E+03   8.12500E+03  HDC001pr08c07       
 HD   C      1   1.87500E+03   8.12500E+03  HDC001pr08c08       
 HD   C      1   2.12500E+03   8.12500E+03  HDC001pr08c09       
 HD   C      1   2.37500E+03   8.12500E+03  HDC001pr08c10       
 HD   C      1   2.62500E+03   8.12500E+03  HDC001pr08c11       
 HD   C      1   2.87500E+03   8.12500E+03  HDC001pr08c12       
 HD   C      1   3.12500E+03   8.12500E+03  HDC001pr08c13       
 HD   C      1   3.37500E+03   8.12500E+03  HDC001pr08c14       
 HD   C      1   3.62500E+03   8.12500E+03  HDC001pr08c15       
 HD   C      1   3.87500E+03   8.12500E+03  HDC001pr08c16       
 HD   C      1   4.12500E+03   8.12500E+03  HDC001pr08c17       
 HD   C      1   4.37500E+03   8.12500E+03  HDC001pr08c18       
 HD   C      1   4.62500E+03   8.12500E+03  HDC001pr08c19       
 HD   C      1   4.87500E+03   8.12500E+03  HDC001pr08c20       
 HD   C      1   1.25000E+02   7.87500E+03  HDC001pr09c01       
 HD   C      1   3.75000E+02   7.87500E+03  HDC001pr09c02       
 HD   C      1   6.25000E+02   7.87500E+03  HDC001pr09c03       
 HD   C      1   8.75000E+02   7.87500E+03  HDC001pr09c04       
 HD   C      1   1.87500E+03   7.87500E+03  HDC001pr09c08       
 HD   C      1   2.12500E+03   7.87500E+03  HDC001pr09c09       
 HD   C      1   2.37500E+03   7.87500E+03  HDC001pr09c10       
 HD   C      1   2.62500E+03   7.87500E+03  HDC001pr09c11       
 HD   C      1   2.87500E+03   7.87500E+03  HDC001pr09c12       
 HD   C      1   3.12500E+03   7.87500E+03  HDC001pr09c13       
 HD   C      1   3.37500E+03   7.87500E+03  HDC001pr09c14       
 HD   C      1   3.62500E+03   7.87500E+03  HDC001pr09c15       
 HD   C      1   3.87500E+03   7.87500E+03  HDC001pr09c16       
 HD   C      1   4.12500E+03   7.87500E+03  HDC001pr09c17       
 HD   C      1   4.37500E+03   7.87500E+03  HDC001pr09c18       
 HD   C      1   4.62500E+03   7.87500E+03  HDC001pr09c19       
 HD   C      1   4.87500E+03   7.87500E+03  HDC001pr09c20       
 HD   C      1   1.25000E+02   7.62500E+03  HDC001pr10c01       
 HD   C      1   3.75000E+02   7.62500E+03  HDC001cr10c02       
 HD   C      1   3.75000E+02   7.62500E+03  HDC001fr10c02       
 HD   C      1   6.25000E+02   7.62500E+03  HDC001pr10c03       
 HD   C      1   8.75000E+02   7.62500E+03  HDC001pr10c04       
 HD   C      1   2.12500E+03   7.62500E+03  HDC001pr10c09       
 HD   C      1   2.37500E+03   7.62500E+03  HDC001pr10c10       
 HD   C      1   2.62500E+03   7.62500E+03  HDC001pr10c11       
 HD   C      1   2.87500E+03   7.62500E+03  HDC001pr10c12       
 HD   C      1   3.12500E+03   7.62500E+03  HDC001pr10c13       
 HD   C      1   3.37500E+03   7.62500E+03  HDC001pr10c14       
 HD   C      1   3.62500E+03   7.62500E+03  HDC001pr10c15       
 HD   C      1   3.87500E+03   7.62500E+03  HDC001pr10c16       
 HD   C      1   4.12500E+03   7.62500E+03  HDC001pr10c17       
 HD   C      1   4.37500E+03   7.62500E+03  HDC001pr10c18       
 HD   C      1   4.62500E+03   7.62500E+03  HDC001pr10c19       
 HD   C      1   4.87500E+03   7.62500E+03  HDC001pr10c20       
 HD   C      1   1.25000E+02   7.37500E+03  HDC001pr11c01       
 HD   C      1   3.75000E+02   7.37500E+03  HDC001pr11c02       
 HD   C      1   6.25000E+02   7.37500E+03  HDC001pr11c03       
 HD   C      1   8.75000E+02   7.37500E+03  HDC001pr11c04       
 HD   C      1   2.12500E+03   7.37500E+03  HDC001pr11c09       
 HD   C      1   2.37500E+03   7.37500E+03  HDC001pr11c10       
 HD   C      1   2.62500E+03   7.37500E+03  HDC001pr11c11       
 HD   C      1   2.87500E+03   7.37500E+03  HDC001pr11c12       
 HD   C      1   3.12500E+03   7.37500E+03  HDC001pr11c13       
 HD   C      1   3.37500E+03   7.37500E+03  HDC001pr11c14       
 HD   C      1   3.62500E+03   7.37500E+03  HDC001pr11c15       
 HD   C      1   3.87500E+03   7.37500E+03  HDC001pr11c16       
 HD   C      1   4.12500E+03   7.37500E+03  HDC001pr11c17       
 HD   C      1   4.37500E+03   7.37500E+03  HDC001pr11c18       
 HD   C      1   4.62500E+03   7.37500E+03  HDC001pr11c19       
 HD   C      1   4.87500E+03   7.37500E+03  HDC001pr11c20       
 HD   C      1   1.25000E+02   7.12500E+03  HDC001pr12c01       
 HD   C      1   3.75000E+02   7.12500E+03  HDC001pr12c02       
 HD   C      1   6.25000E+02   7.12500E+03  HDC001pr12c03       
 HD   C      1   8.75000E+02   7.12500E+03  HDC001pr12c04       
 HD   C      1   2.12500E+03   7.12500E+03  HDC001pr12c09       
 HD   C      1   2.37500E+03   7.12500E+03  HDC001pr12c10       
 HD   C      1   2.62500E+03   7.12500E+03  HDC001pr12c11       
 HD   C      1   2.87500E+03   7.12500E+03  HDC001pr12c12       
 HD   C      1   3.12500E+03   7.12500E+03  HDC001pr12c13       
 HD   C      1   3.37500E+03   7.12500E+03  HDC001pr12c14       
 HD   C      1   3.62500E+03   7.12500E+03  HDC001pr12c15       
 HD   C      1   3.87500E+03   7.12500E+03  HDC001pr12c16       
 HD   C      1   4.12500E+03   7.12500E+03  HDC001pr12c17       
 HD   C      1   4.37500E+03   7.12500E+03  HDC001pr12c18       
 HD   C      1   4.62500E+03   7.12500E+03  HDC001pr12c19       
 HD   C      1   4.87500E+03   7.12500E+03  HDC001pr12c20       
 HD   C      1   1.25000E+02   6.87500E+03  HDC001pr13c01       
 HD   C      1   3.75000E+02   6.87500E+03  HDC001pr13c02       
 HD   C      1   6.25000E+02   6.87500E+03  HDC001pr13c03       
 HD   C      1   8.75000E+02   6.87500E+03  HDC001pr13c04       
 HD   C      1   2.12500E+03   6.87500E+03  HDC001pr13c09       
 HD   C      1   2.37500E+03   6.87500E+03  HDC001pr13c10       
 HD   C      1   2.62500E+03   6.87500E+03  HDC001pr13c11       
 HD   C      1   2.87500E+03   6.87500E+03  HDC001pr13c12       
 HD   C      1   3.12500E+03   6.87500E+03  HDC001pr13c13       
 HD   C      1   3.37500E+03   6.87500E+03  HDC001pr13c14       
 HD   C      1   3.62500E+03   6.87500E+03  HDC001pr13c15       
 HD   C      1   3.87500E+03   6.87500E+03  HDC001pr13c16       
 HD   C      1   4.12500E+03   6.87500E+03  HDC001pr13c17       
 HD   C      1   4.37500E+03   6.87500E+03  HDC001pr13c18       
 HD   C      1   4.62500E+03   6.87500E+03  HDC001pr13c19       
 HD   C      1   4.87500E+03   6.87500E+03  HDC001pr13c20       
 HD   C      1   1.25000E+02   6.62500E+03  HDC001pr14c01       
 HD   C      1   3.75000E+02   6.62500E+03  HDC001pr14c02       
 HD   C      1   6.25000E+02   6.62500E+03  HDC001pr14c03       
 HD   C      1   8.75000E+02   6.62500E+03  HDC001pr14c04       
 HD   C      1   2.12500E+03   6.62500E+03  HDC001pr14c09       
 HD   C      1   2.37500E+03   6.62500E+03  HDC001pr14c10       
 HD   C      1   2.62500E+03   6.62500E+03  HDC001cr14c11       
 HD   C      1   2.62500E+03   6.62500E+03  HDC001fr14c11       
 HD   C      1   2.87500E+03   6.62500E+03  HDC001pr14c12       
 HD   C      1   3.12500E+03   6.62500E+03  HDC001pr14c13       
 HD   C      1   3.37500E+03   6.62500E+03  HDC001pr14c14       
 HD   C      1   3.62500E+03   6.62500E+03  HDC001pr14c15       
 HD   C      1   3.87500E+03   6.62500E+03  HDC001pr14c16       
 HD   C      1   4.12500E+03   6.62500E+03  HDC001pr14c17       
 HD   C      1   4.37500E+03   6.62500E+03  HDC001pr14c18       
 HD   C      1   4.62500E+03   6.62500E+03  HDC001pr14c19       
 HD   C      1   4.87500E+03   6.62500E+03  HDC001pr14c20       
 HD   C      1   1.25000E+02   6.37500E+03  HDC001pr15c01       
 HD   C      1   3.75000E+02   6.37500E+03  HDC001pr15c02       
 HD   C      1   6.25000E+02   6.37500E+03  HDC001pr15c03       
 HD   C      1   8.75000E+02   6.37500E+03  HDC001pr15c04       
 HD   C      1   2.12500E+03   6.37500E+03  HDC001pr15c09       
 HD   C      1   2.37500E+03   6.37500E+03  HDC001pr15c10       
 HD   C      1   2.62500E+03   6.37500E+03  HDC001pr15c11       
 HD   C      1   2.87500E+03   6.37500E+03  HDC001pr15c12       
 HD   C      1   3.12500E+03   6.37500E+03  HDC001pr15c13       
 HD   C      1   3.37500E+03   6.37500E+03  HDC001pr15c14       
 HD   C      1   3.62500E+03   6.37500E+03  HDC001pr15c15       
 HD   C      1   3.87500E+03   6.37500E+03  HDC001pr15c16       
 HD   C      1   4.12500E+03   6.37500E+03  HDC001pr15c17       
 HD   C      1   4.37500E+03   6.37500E+03  HDC001pr15c18       
 HD   C      1   4.62500E+03   6.37500E+03  HDC001pr15c19       
 HD   C      1   4.87500E+03   6.37500E+03  HDC001pr15c20       
 HD   C      1   1.25000E+02   6.12500E+03  HDC001pr16c01       
 HD   C      1   3.75000E+02   6.12500E+03  HDC001pr16c02       
 HD   C      1   6.25000E+02   6.12500E+03  HDC001pr16c03       
 HD   C      1   8.75000E+02   6.12500E+03  HDC001pr16c04       
 HD   C      1   2.12500E+03   6.12500E+03  HDC001pr16c09       
 HD   C      1   2.37500E+03   6.12500E+03  HDC001pr16c10       
 HD   C      1   2.62500E+03   6.12500E+03  HDC001pr16c11       
 HD   C      1   2.87500E+03   6.12500E+03  HDC001pr16c12       
 HD   C      1   3.12500E+03   6.12500E+03  HDC001pr16c13       
 HD   C      1   3.37500E+03   6.12500E+03  HDC001pr16c14       
 HD   C      1   3.62500E+03   6.12500E+03  HDC001pr16c15       
 HD   C      1   3.87500E+03   6.12500E+03  HDC001pr16c16       
 HD   C      1   4.12500E+03   6.12500E+03  HDC001cr16c17       
 HD   C      1   4.12500E+03   6.12500E+03  HDC001fr16c17       
 HD   C      1   4.37500E+03   6.12500E+03  HDC001pr16c18       
 HD   C      1   4.62500E+03   6.12500E+03  HDC001pr16c19       
 HD   C      1   4.87500E+03   6.12500E+03  HDC001pr16c20       
 HD   C      1   1.25000E+02   5.87500E+03  HDC001pr17c01       
 HD   C      1   3.75000E+02   5.87500E+03  HDC001pr17c02       
 HD   C      1   6.25000E+02   5.87500E+03  HDC001pr17c03       
 HD   C      1   8.75000E+02   5.87500E+03  HDC001pr17c04       
 HD   C      1   2.12500E+03   5.87500E+03  HDC001pr17c09       
 HD   C      1   2.37500E+03   5.87500E+03  HDC001pr17c10       
 HD   C      1   2.62500E+03   5.87500E+03  HDC001pr17c11       
 HD   C      1   2.87500E+03   5.87500E+03  HDC001pr17c12       
 HD   C      1   3.12500E+03   5.87500E+03  HDC001pr17c13       
 HD   C      1   3.37500E+03   5.87500E+03  HDC001pr17c14       
 HD   C      1   3.62500E+03   5.87500E+03  HDC001pr17c15       
 HD   C      1   3.87500E+03   5.87500E+03  HDC001pr17c16       
 HD   C      1   4.12500E+03   5.87500E+03  HDC001pr17c17       
 HD   C      1   4.37500E+03   5.87500E+03  HDC001pr17c18       
 HD   C      1   4.62500E+03   5.87500E+03  HDC001pr17c19       
 HD   C      1   4.87500E+03   5.87500E+03  HDC001pr17c20       
 HD   C      1   1.25000E+02   5.62500E+03  HDC001pr18c01       
 HD   C      1   3.75000E+02   5.62500E+03  HDC001pr18c02       
 HD   C      1   6.25000E+02   5.62500E+03  HDC001pr18c03       
 HD   C      1   8.75000E+02   5.62500E+03  HDC001pr18c04       
 HD   C      1   2.12500E+03   5.62500E+03  HDC001pr18c09       
 HD   C      1   2.37500E+03   5.62500E+03  HDC001pr18c10       
 HD   C      1   2.62500E+03   5.62500E+03  HDC001pr18c11       
 HD   C      1   2.87500E+03   5.62500E+03  HDC001pr18c12       
 HD   C      1   3.12500E+03   5.62500E+03  HDC001pr18c13       
 HD   C      1   3.37500E+03   5.62500E+03  HDC001pr18c14       
 HD   C      1   3.62500E+03   5.62500E+03  HDC001pr18c15       
 HD   C      1   3.87500E+03   5.62500E+03  HDC001pr18c16       
 HD   C      1   4.12500E+03   5.62500E+03  HDC001pr18c17       
 HD   C      1   4.37500E+03   5.62500E+03  HDC001pr18c18       
 HD   C      1   4.62500E+03   5.62500E+03  HDC001pr18c19       
 HD   C      1   4.87500E+03   5.62500E+03  HDC001pr18c20       
 HD   C      1   1.25000E+02   5.37500E+03  HDC001pr19c01       
 HD   C      1   3.75000E+02   5.37500E+03  HDC001pr19c02       
 HD   C      1   6.25000E+02   5.37500E+03  HDC001pr19c03       
 HD   C      1   8.75000E+02   5.37500E+03  HDC001pr19c04       
 HD   C      1   2.12500E+03   5.37500E+03  HDC001pr19c09       
 HD   C      1   2.37500E+03   5.37500E+03  HDC001pr19c10       
 HD   C      1   2.62500E+03   5.37500E+03  HDC001pr19c11       
 HD   C      1   2.87500E+03   5.37500E+03  HDC001pr19c12       
 HD   C      1   3.12500E+03   5.37500E+03  HDC001pr19c13       
 HD   C      1   3.37500E+03   5.37500E+03  HDC001pr19c14       
 HD   C      1   3.62500E+03   5.37500E+03  HDC001pr19c15       
 HD   C      1   3.87500E+03   5.37500E+03  HDC001pr19c16       
 HD   C      1   4.12500E+03   5.37500E+03  HDC001pr19c17       
 HD   C      1   4.37500E+03   5.37500E+03  HDC001pr19c18       
 HD   C      1   4.62500E+03   5.37500E+03  HDC001pr19c19       
 HD   C      1   4.87500E+03   5.37500E+03  HDC001pr19c20       
 HD   C      1   1.25000E+02   5.12500E+03  HDC001pr20c01       
 HD   C      1   3.75000E+02   5.12500E+03  HDC001pr20c02       
 HD   C      1   6.25000E+02   5.12500E+03  HDC001pr20c03       
 HD   C      1   8.75000E+02   5.12500E+03  HDC001pr20c04       
 HD   C      1   2.12500E+03   5.12500E+03  HDC001pr20c09       
 HD   C      1   2.37500E+03   5.12500E+03  HDC001pr20c10       