# Discretization file for MODFLOW, generated by Flopy.
         1        20        30         1         4         0
  0
OPEN/CLOSE                    delr.ref               1  (30E15.6) -1 delr                          
OPEN/CLOSE                    delc.ref               1  (20E15.6) -1 delc                          
OPEN/CLOSE               model_top.ref               1     (FREE) -1 model_top                     
OPEN/CLOSE            botm_layer_1.ref               1     (FREE) -1 botm_layer_0                  
   1000.000000             1  1.000000  SS 
