pcf
* control data
restart estimation
   7500  19200      3      0     40
     6     1   single   point   1   0   0
 1e-1   -4.0   0.3  0.03    10	    999
5.0   5.0   1.0e-3
0.1
30   .005  4   4  .005   4
1    1    1
* singular value decomposition
1
  7500  1.0000000E-03
0
* parameter groups
k            relative     1.0000E-02   0.000      switch      2.000      parabolic
sy           relative     1.0000E-02   0.000      switch      2.000      parabolic
s            relative     1.0000E-02   0.000      switch      2.000      parabolic
* parameter data
k01_01_01    log    factor       1000.00       1.00000E-10   1.00000E+10  k             1.0000       0.000        1
k01_01_02    log    factor       1000.00       1.00000E-10   1.00000E+10  k             1.0000       0.000        1
k01_01_03    log    factor       1000.00       1.00000E-10   1.00000E+10  k             1.0000       0.000        1
k01_01_04    log    factor       1000.00       1.00000E-10   1.00000E+10  k             1.0000       0.000        1
k01_01_05    log    factor       1000.00       1.00000E-10   1.00000E+10  k             1.0000       0.000        1
k01_01_06    log    factor       1000.00       1.00000E-10   1.00000E+10  k             1.0000       0.000        1
k01_01_07    log    factor       1000.00       1.00000E-10   1.00000E+10  k             1.0000       0.000        1
k01_01_08    log    factor       1000.00       1.00000E-10   1.00000E+10  k             1.0000       0.000        1
k01_01_09    log    factor       1000.00       1.00000E-10   1.00000E+10  k             1.0000       0.000        1
k01_01_10    log    factor       1000.00       1.00000E-10   1.00000E+10  k             1.0000       0.000        1
k01_01_11    log    factor       1000.00       1.00000E-10   1.00000E+10  k             1.0000       0.000        1
k01_01_12    log    factor       1000.00       1.00000E-10   1.00000E+10  k             1.0000       0.000        1
k01_01_13    log    factor       1000.00       1.00000E-10   1.00000E+10  k             1.0000       0.000        1
k01_01_14    log    factor       1000.00       1.00000E-10   1.00000E+10  k             1.0000       0.000        1
k01_01_15    log    factor       1000.00       1.00000E-10   1.00000E+10  k             1.0000       0.000        1
k01_01_16    log    factor       1000.00       1.00000E-10   1.00000E+10  k             1.0000       0.000        1
k01_01_17    log    factor       1000.00       1.00000E-10   1.00000E+10  k             1.0000       0.000        1
k01_01_18    log    factor       1000.00       1.00000E-10   1.00000E+10  k             1.0000       0.000        1
k01_01_19    log    factor       1000.00       1.00000E-10   1.00000E+10  k             1.0000       0.000        1
k01_01_20    log    factor       1000.00       1.00000E-10   1.00000E+10  k             1.0000       0.000        1
k01_01_21    log    factor       1000.00       1.00000E-10   1.00000E+10  k             1.0000       0.000        1
k01_01_22    log    factor       1000.00       1.00000E-10   1.00000E+10  k             1.0000       0.000        1
k01_01_23    log    factor       1000.00       1.00000E-10   1.00000E+10  k             1.0000       0.000        1
k01_01_24    log    factor       1000.00       1.00000E-10   1.00000E+10  k             1.0000       0.000        1
k01_01_25    log    factor       1000.00       1.00000E-10   1.00000E+10  k             1.0000       0.000        1
k01_02_01    log    factor       1000.00       1.00000E-10   1.00000E+10  k             1.0000       0.000        1
k01_02_02    log    factor       1000.00       1.00000E-10   1.00000E+10  k             1.0000       0.000        1
k01_02_03    log    factor       1000.00       1.00000E-10   1.00000E+10  k             1.0000       0.000        1
k01_02_04    log    factor       1000.00       1.00000E-10   1.00000E+10  k             1.0000       0.000        1
k01_02_05    log    factor       1000.00       1.00000E-10   1.00000E+10  k             1.0000       0.000        1
k01_02_06    log    factor       1000.00       1.00000E-10   1.00000E+10  k             1.0000       0.000        1
k01_02_07    log    factor       1000.00       1.00000E-10   1.00000E+10  k             1.0000       0.000        1
k01_02_08    log    factor       1000.00       1.00000E-10   1.00000E+10  k             1.0000       0.000        1
k01_02_09    log    factor       1000.00       1.00000E-10   1.00000E+10  k             1.0000       0.000        1
k01_02_10    log    factor       1000.00       1.00000E-10   1.00000E+10  k             1.0000       0.000        1
k01_02_11    log    factor       1000.00       1.00000E-10   1.00000E+10  k             1.0000       0.000        1
k01_02_12    log    factor       1000.00       1.00000E-10   1.00000E+10  k             1.0000       0.000        1
k01_02_13    log    factor       1000.00       1.00000E-10   1.00000E+10  k             1.0000       0.000        1
k01_02_14    log    factor       1000.00       1.00000E-10   1.00000E+10  k             1.0000       0.000        1
k01_02_15    log    factor       1000.00       1.00000E-10   1.00000E+10  k             1.0000       0.000        1
k01_02_16    log    factor       1000.00       1.00000E-10   1.00000E+10  k             1.0000       0.000        1
k01_02_17    log    factor       1000.00       1.00000E-10   1.00000E+10  k             1.0000       0.000        1
k01_02_18    log    factor       1000.00       1.00000E-10   1.00000E+10  k             1.0000       0.000        1
k01_02_19    log    factor       1000.00       1.00000E-10   1.00000E+10  k             1.0000       0.000        1
k01_02_20    log    factor       1000.00       1.00000E-10   1.00000E+10  k             1.0000       0.000        1
k01_02_21    log    factor       1000.00       1.00000E-10   1.00000E+10  k             1.0000       0.000        1
k01_02_22    log    factor       1000.00       1.00000E-10   1.00000E+10  k             1.0000       0.000        1
k01_02_23    log    factor       1000.00       1.00000E-10   1.00000E+10  k             1.0000       0.000        1
k01_02_24    log    factor       1000.00       1.00000E-10   1.00000E+10  k             1.0000       0.000        1
k01_02_25    log    factor       1000.00       1.00000E-10   1.00000E+10  k             1.0000       0.000        1
k01_03_01    log    factor       1000.00       1.00000E-10   1.00000E+10  k             1.0000       0.000        1
k01_03_02    log    factor       1000.00       1.00000E-10   1.00000E+10  k             1.0000       0.000        1
k01_03_03    log    factor       1000.00       1.00000E-10   1.00000E+10  k             1.0000       0.000        1
k01_03_04    log    factor       1000.00       1.00000E-10   1.00000E+10  k             1.0000       0.000        1
k01_03_05    log    factor       1000.00       1.00000E-10   1.00000E+10  k             1.0000       0.000        1
k01_03_06    log    factor       1000.00       1.00000E-10   1.00000E+10  k             1.0000       0.000        1
k01_03_07    log    factor       1000.00       1.00000E-10   1.00000E+10  k             1.0000       0.000        1
k01_03_08    log    factor       1000.00       1.00000E-10   1.00000E+10  k             1.0000       0.000        1
k01_03_09    log    factor       1000.00       1.00000E-10   1.00000E+10  k             1.0000       0.000        1
k01_03_10    log    factor       1000.00       1.00000E-10   1.00000E+10  k             1.0000       0.000        1
k01_03_11    log    factor       1000.00       1.00000E-10   1.00000E+10  k             1.0000       0.000        1
k01_03_12    log    factor       1000.00       1.00000E-10   1.00000E+10  k             1.0000       0.000        1
k01_03_13    log    factor       1000.00       1.00000E-10   1.00000E+10  k             1.0000       0.000        1
k01_03_14    log    factor       1000.00       1.00000E-10   1.00000E+10  k             1.0000       0.000        1
k01_03_15    log    factor       1000.00       1.00000E-10   1.00000E+10  k             1.0000       0.000        1
k01_03_16    log    factor       1000.00       1.00000E-10   1.00000E+10  k             1.0000       0.000        1
k01_03_17    log    factor       1000.00       1.00000E-10   1.00000E+10  k             1.0000       0.000        1
k01_03_18    log    factor       1000.00       1.00000E-10   1.00000E+10  k             1.0000       0.000        1
k01_03_19    log    factor       1000.00       1.00000E-10   1.00000E+10  k             1.0000       0.000        1
k01_03_20    log    factor       1000.00       1.00000E-10   1.00000E+10  k             1.0000       0.000        1
k01_03_21    log    factor       1000.00       1.00000E-10   1.00000E+10  k             1.0000       0.000        1
k01_03_22    log    factor       1000.00       1.00000E-10   1.00000E+10  k             1.0000       0.000        1
k01_03_23    log    factor       1000.00       1.00000E-10   1.00000E+10  k             1.0000       0.000        1
k01_03_24    log    factor       1000.00       1.00000E-10   1.00000E+10  k             1.0000       0.000        1
k01_03_25    log    factor       1000.00       1.00000E-10   1.00000E+10  k             1.0000       0.000        1
k01_04_01    log    factor       1000.00       1.00000E-10   1.00000E+10  k             1.0000       0.000        1
k01_04_02    log    factor       1000.00       1.00000E-10   1.00000E+10  k             1.0000       0.000        1
k01_04_03    log    factor       1000.00       1.00000E-10   1.00000E+10  k             1.0000       0.000        1
k01_04_04    log    factor       1000.00       1.00000E-10   1.00000E+10  k             1.0000       0.000        1
k01_04_05    log    factor       1000.00       1.00000E-10   1.00000E+10  k             1.0000       0.000        1
k01_04_06    log    factor       1000.00       1.00000E-10   1.00000E+10  k             1.0000       0.000        1
k01_04_07    log    factor       1000.00       1.00000E-10   1.00000E+10  k             1.0000       0.000        1
k01_04_08    log    factor       1000.00       1.00000E-10   1.00000E+10  k             1.0000       0.000        1
k01_04_09    log    factor       1000.00       1.00000E-10   1.00000E+10  k             1.0000       0.000        1
k01_04_10    log    factor       1000.00       1.00000E-10   1.00000E+10  k             1.0000       0.000        1
k01_04_11    log    factor       1000.00       1.00000E-10   1.00000E+10  k             1.0000       0.000        1
k01_04_12    log    factor       1000.00       1.00000E-10   1.00000E+10  k             1.0000       0.000        1
k01_04_13    log    factor       1000.00       1.00000E-10   1.00000E+10  k             1.0000       0.000        1
k01_04_14    log    factor       1000.00       1.00000E-10   1.00000E+10  k             1.0000       0.000        1
k01_04_15    log    factor       1000.00       1.00000E-10   1.00000E+10  k             1.0000       0.000        1
k01_04_16    log    factor       1000.00       1.00000E-10   1.00000E+10  k             1.0000       0.000        1
k01_04_17    log    factor       1000.00       1.00000E-10   1.00000E+10  k             1.0000       0.000        1
k01_04_18    log    factor       1000.00       1.00000E-10   1.00000E+10  k             1.0000       0.000        1
k01_04_19    log    factor       1000.00       1.00000E-10   1.00000E+10  k             1.0000       0.000        1
k01_04_20    log    factor       1000.00       1.00000E-10   1.00000E+10  k             1.0000       0.000        1
k01_04_21    log    factor       1000.00       1.00000E-10   1.00000E+10  k             1.0000       0.000        1
k01_04_22    log    factor       1000.00       1.00000E-10   1.00000E+10  k             1.0000       0.000        1
k01_04_23    log    factor       1000.00       1.00000E-10   1.00000E+10  k             1.0000       0.000        1
k01_04_24    log    factor       1000.00       1.00000E-10   1.00000E+10  k             1.0000       0.000        1
k01_04_25    log    factor       1000.00       1.00000E-10   1.00000E+10  k             1.0000       0.000        1
k01_05_01    log    factor       1000.00       1.00000E-10   1.00000E+10  k             1.0000       0.000        1
k01_05_02    log    factor       1000.00       1.00000E-10   1.00000E+10  k             1.0000       0.000        1
k01_05_03    log    factor       1000.00       1.00000E-10   1.00000E+10  k             1.0000       0.000        1
k01_05_04    log    factor       1000.00       1.00000E-10   1.00000E+10  k             1.0000       0.000        1
k01_05_05    log    factor       1000.00       1.00000E-10   1.00000E+10  k             1.0000       0.000        1
k01_05_06    log    factor       1000.00       1.00000E-10   1.00000E+10  k             1.0000       0.000        1
k01_05_07    log    factor       1000.00       1.00000E-10   1.00000E+10  k             1.0000       0.000        1
k01_05_08    log    factor       1000.00       1.00000E-10   1.00000E+10  k             1.0000       0.000        1
k01_05_09    log    factor       1000.00       1.00000E-10   1.00000E+10  k             1.0000       0.000        1
k01_05_10    log    factor       1000.00       1.00000E-10   1.00000E+10  k             1.0000       0.000        1
k01_05_11    log    factor       1000.00       1.00000E-10   1.00000E+10  k             1.0000       0.000        1
k01_05_12    log    factor       1000.00       1.00000E-10   1.00000E+10  k             1.0000       0.000        1
k01_05_13    log    factor       1000.00       1.00000E-10   1.00000E+10  k             1.0000       0.000        1
k01_05_14    log    factor       1000.00       1.00000E-10   1.00000E+10  k             1.0000       0.000        1
k01_05_15    log    factor       1000.00       1.00000E-10   1.00000E+10  k             1.0000       0.000        1
k01_05_16    log    factor       1000.00       1.00000E-10   1.00000E+10  k             1.0000       0.000        1
k01_05_17    log    factor       1000.00       1.00000E-10   1.00000E+10  k             1.0000       0.000        1
k01_05_18    log    factor       1000.00       1.00000E-10   1.00000E+10  k             1.0000       0.000        1
k01_05_19    log    factor       1000.00       1.00000E-10   1.00000E+10  k             1.0000       0.000        1
k01_05_20    log    factor       1000.00       1.00000E-10   1.00000E+10  k             1.0000       0.000        1
k01_05_21    log    factor       1000.00       1.00000E-10   1.00000E+10  k             1.0000       0.000        1
k01_05_22    log    factor       1000.00       1.00000E-10   1.00000E+10  k             1.0000       0.000        1
k01_05_23    log    factor       1000.00       1.00000E-10   1.00000E+10  k             1.0000       0.000        1
k01_05_24    log    factor       1000.00       1.00000E-10   1.00000E+10  k             1.0000       0.000        1
k01_05_25    log    factor       1000.00       1.00000E-10   1.00000E+10  k             1.0000       0.000        1
k01_06_01    log    factor       1000.00       1.00000E-10   1.00000E+10  k             1.0000       0.000        1
k01_06_02    log    factor       1000.00       1.00000E-10   1.00000E+10  k             1.0000       0.000        1
k01_06_03    log    factor       1000.00       1.00000E-10   1.00000E+10  k             1.0000       0.000        1
k01_06_04    log    factor       1000.00       1.00000E-10   1.00000E+10  k             1.0000       0.000        1
k01_06_05    log    factor       1000.00       1.00000E-10   1.00000E+10  k             1.0000       0.000        1
k01_06_06    log    factor       1000.00       1.00000E-10   1.00000E+10  k             1.0000       0.000        1
k01_06_07    log    factor       1000.00       1.00000E-10   1.00000E+10  k             1.0000       0.000        1
k01_06_08    log    factor       1000.00       1.00000E-10   1.00000E+10  k             1.0000       0.000        1
k01_06_09    log    factor       1000.00       1.00000E-10   1.00000E+10  k             1.0000       0.000        1
k01_06_10    log    factor       1000.00       1.00000E-10   1.00000E+10  k             1.0000       0.000        1
k01_06_11    log    factor       1000.00       1.00000E-10   1.00000E+10  k             1.0000       0.000        1
k01_06_12    log    factor       1000.00       1.00000E-10   1.00000E+10  k             1.0000       0.000        1
k01_06_13    log    factor       1000.00       1.00000E-10   1.00000E+10  k             1.0000       0.000        1
k01_06_14    log    factor       1000.00       1.00000E-10   1.00000E+10  k             1.0000       0.000        1
k01_06_15    log    factor       1000.00       1.00000E-10   1.00000E+10  k             1.0000       0.000        1
k01_06_16    log    factor       1000.00       1.00000E-10   1.00000E+10  k             1.0000       0.000        1
k01_06_17    log    factor       1000.00       1.00000E-10   1.00000E+10  k             1.0000       0.000        1
k01_06_18    log    factor       1000.00       1.00000E-10   1.00000E+10  k             1.0000       0.000        1
k01_06_19    log    factor       1000.00       1.00000E-10   1.00000E+10  k             1.0000       0.000        1
k01_06_20    log    factor       1000.00       1.00000E-10   1.00000E+10  k             1.0000       0.000        1
k01_06_21    log    factor       1000.00       1.00000E-10   1.00000E+10  k             1.0000       0.000        1
k01_06_22    log    factor       1000.00       1.00000E-10   1.00000E+10  k             1.0000       0.000        1
k01_06_23    log    factor       1000.00       1.00000E-10   1.00000E+10  k             1.0000       0.000        1
k01_06_24    log    factor       1000.00       1.00000E-10   1.00000E+10  k             1.0000       0.000        1
k01_06_25    log    factor       1000.00       1.00000E-10   1.00000E+10  k             1.0000       0.000        1
k01_07_01    log    factor       1000.00       1.00000E-10   1.00000E+10  k             1.0000       0.000        1
k01_07_02    log    factor       1000.00       1.00000E-10   1.00000E+10  k             1.0000       0.000        1
k01_07_03    log    factor       1000.00       1.00000E-10   1.00000E+10  k             1.0000       0.000        1
k01_07_04    log    factor       1000.00       1.00000E-10   1.00000E+10  k             1.0000       0.000        1
k01_07_05    log    factor       1000.00       1.00000E-10   1.00000E+10  k             1.0000       0.000        1
k01_07_06    log    factor       1000.00       1.00000E-10   1.00000E+10  k             1.0000       0.000        1
k01_07_07    log    factor       1000.00       1.00000E-10   1.00000E+10  k             1.0000       0.000        1
k01_07_08    log    factor       1000.00       1.00000E-10   1.00000E+10  k             1.0000       0.000        1
k01_07_09    log    factor       1000.00       1.00000E-10   1.00000E+10  k             1.0000       0.000        1
k01_07_10    log    factor       1000.00       1.00000E-10   1.00000E+10  k             1.0000       0.000        1
k01_07_11    log    factor       1000.00       1.00000E-10   1.00000E+10  k             1.0000       0.000        1
k01_07_12    log    factor       1000.00       1.00000E-10   1.00000E+10  k             1.0000       0.000        1
k01_07_13    log    factor       1000.00       1.00000E-10   1.00000E+10  k             1.0000       0.000        1
k01_07_14    log    factor       1000.00       1.00000E-10   1.00000E+10  k             1.0000       0.000        1
k01_07_15    log    factor       1000.00       1.00000E-10   1.00000E+10  k             1.0000       0.000        1
k01_07_16    log    factor       1000.00       1.00000E-10   1.00000E+10  k             1.0000       0.000        1
k01_07_17    log    factor       1000.00       1.00000E-10   1.00000E+10  k             1.0000       0.000        1
k01_07_18    log    factor       1000.00       1.00000E-10   1.00000E+10  k             1.0000       0.000        1
k01_07_19    log    factor       1000.00       1.00000E-10   1.00000E+10  k             1.0000       0.000        1
k01_07_20    log    factor       1000.00       1.00000E-10   1.00000E+10  k             1.0000       0.000        1
k01_07_21    log    factor       1000.00       1.00000E-10   1.00000E+10  k             1.0000       0.000        1
k01_07_22    log    factor       1000.00       1.00000E-10   1.00000E+10  k             1.0000       0.000        1
k01_07_23    log    factor       1000.00       1.00000E-10   1.00000E+10  k             1.0000       0.000        1
k01_07_24    log    factor       1000.00       1.00000E-10   1.00000E+10  k             1.0000       0.000        1
k01_07_25    log    factor       1000.00       1.00000E-10   1.00000E+10  k             1.0000       0.000        1
k01_08_01    log    factor       1000.00       1.00000E-10   1.00000E+10  k             1.0000       0.000        1
k01_08_02    log    factor       1000.00       1.00000E-10   1.00000E+10  k             1.0000       0.000        1
k01_08_03    log    factor       1000.00       1.00000E-10   1.00000E+10  k             1.0000       0.000        1
k01_08_04    log    factor       1000.00       1.00000E-10   1.00000E+10  k             1.0000       0.000        1
k01_08_05    log    factor       1000.00       1.00000E-10   1.00000E+10  k             1.0000       0.000        1
k01_08_06    log    factor       1000.00       1.00000E-10   1.00000E+10  k             1.0000       0.000        1
k01_08_07    log    factor       1000.00       1.00000E-10   1.00000E+10  k             1.0000       0.000        1
k01_08_08    log    factor       1000.00       1.00000E-10   1.00000E+10  k             1.0000       0.000        1
k01_08_09    log    factor       1000.00       1.00000E-10   1.00000E+10  k             1.0000       0.000        1
k01_08_10    log    factor       1000.00       1.00000E-10   1.00000E+10  k             1.0000       0.000        1
k01_08_11    log    factor       1000.00       1.00000E-10   1.00000E+10  k             1.0000       0.000        1
k01_08_12    log    factor       1000.00       1.00000E-10   1.00000E+10  k             1.0000       0.000        1
k01_08_13    log    factor       1000.00       1.00000E-10   1.00000E+10  k             1.0000       0.000        1
k01_08_14    log    factor       1000.00       1.00000E-10   1.00000E+10  k             1.0000       0.000        1
k01_08_15    log    factor       1000.00       1.00000E-10   1.00000E+10  k             1.0000       0.000        1
k01_08_16    log    factor       1000.00       1.00000E-10   1.00000E+10  k             1.0000       0.000        1
k01_08_17    log    factor       1000.00       1.00000E-10   1.00000E+10  k             1.0000       0.000        1
k01_08_18    log    factor       1000.00       1.00000E-10   1.00000E+10  k             1.0000       0.000        1
k01_08_19    log    factor       1000.00       1.00000E-10   1.00000E+10  k             1.0000       0.000        1
k01_08_20    log    factor       1000.00       1.00000E-10   1.00000E+10  k             1.0000       0.000        1
k01_08_21    log    factor       1000.00       1.00000E-10   1.00000E+10  k             1.0000       0.000        1
k01_08_22    log    factor       1000.00       1.00000E-10   1.00000E+10  k             1.0000       0.000        1
k01_08_23    log    factor       1000.00       1.00000E-10   1.00000E+10  k             1.0000       0.000        1
k01_08_24    log    factor       1000.00       1.00000E-10   1.00000E+10  k             1.0000       0.000        1
k01_08_25    log    factor       1000.00       1.00000E-10   1.00000E+10  k             1.0000       0.000        1
k01_09_01    log    factor       1000.00       1.00000E-10   1.00000E+10  k             1.0000       0.000        1
k01_09_02    log    factor       1000.00       1.00000E-10   1.00000E+10  k             1.0000       0.000        1
k01_09_03    log    factor       1000.00       1.00000E-10   1.00000E+10  k             1.0000       0.000        1
k01_09_04    log    factor       1000.00       1.00000E-10   1.00000E+10  k             1.0000       0.000        1
k01_09_05    log    factor       1000.00       1.00000E-10   1.00000E+10  k             1.0000       0.000        1
k01_09_06    log    factor       1000.00       1.00000E-10   1.00000E+10  k             1.0000       0.000        1
k01_09_07    log    factor       1000.00       1.00000E-10   1.00000E+10  k             1.0000       0.000        1
k01_09_08    log    factor       1000.00       1.00000E-10   1.00000E+10  k             1.0000       0.000        1
k01_09_09    log    factor       1000.00       1.00000E-10   1.00000E+10  k             1.0000       0.000        1
k01_09_10    log    factor       1000.00       1.00000E-10   1.00000E+10  k             1.0000       0.000        1
k01_09_11    log    factor       1000.00       1.00000E-10   1.00000E+10  k             1.0000       0.000        1
k01_09_12    log    factor       1000.00       1.00000E-10   1.00000E+10  k             1.0000       0.000        1
k01_09_13    log    factor       1000.00       1.00000E-10   1.00000E+10  k             1.0000       0.000        1
k01_09_14    log    factor       1000.00       1.00000E-10   1.00000E+10  k             1.0000       0.000        1
k01_09_15    log    factor       1000.00       1.00000E-10   1.00000E+10  k             1.0000       0.000        1
k01_09_16    log    factor       1000.00       1.00000E-10   1.00000E+10  k             1.0000       0.000        1
k01_09_17    log    factor       1000.00       1.00000E-10   1.00000E+10  k             1.0000       0.000        1
k01_09_18    log    factor       1000.00       1.00000E-10   1.00000E+10  k             1.0000       0.000        1
k01_09_19    log    factor       1000.00       1.00000E-10   1.00000E+10  k             1.0000       0.000        1
k01_09_20    log    factor       1000.00       1.00000E-10   1.00000E+10  k             1.0000       0.000        1
k01_09_21    log    factor       1000.00       1.00000E-10   1.00000E+10  k             1.0000       0.000        1
k01_09_22    log    factor       1000.00       1.00000E-10   1.00000E+10  k             1.0000       0.000        1
k01_09_23    log    factor       1000.00       1.00000E-10   1.00000E+10  k             1.0000       0.000        1
k01_09_24    log    factor       1000.00       1.00000E-10   1.00000E+10  k             1.0000       0.000        1
k01_09_25    log    factor       1000.00       1.00000E-10   1.00000E+10  k             1.0000       0.000        1
k01_10_01    log    factor       1000.00       1.00000E-10   1.00000E+10  k             1.0000       0.000        1
k01_10_02    log    factor       1000.00       1.00000E-10   1.00000E+10  k             1.0000       0.000        1
k01_10_03    log    factor       1000.00       1.00000E-10   1.00000E+10  k             1.0000       0.000        1
k01_10_04    log    factor       1000.00       1.00000E-10   1.00000E+10  k             1.0000       0.000        1
k01_10_05    log    factor       1000.00       1.00000E-10   1.00000E+10  k             1.0000       0.000        1
k01_10_06    log    factor       1000.00       1.00000E-10   1.00000E+10  k             1.0000       0.000        1
k01_10_07    log    factor       1000.00       1.00000E-10   1.00000E+10  k             1.0000       0.000        1
k01_10_08    log    factor       1000.00       1.00000E-10   1.00000E+10  k             1.0000       0.000        1
k01_10_09    log    factor       1000.00       1.00000E-10   1.00000E+10  k             1.0000       0.000        1
k01_10_10    log    factor       1000.00       1.00000E-10   1.00000E+10  k             1.0000       0.000        1
k01_10_11    log    factor       1000.00       1.00000E-10   1.00000E+10  k             1.0000       0.000        1
k01_10_12    log    factor       1000.00       1.00000E-10   1.00000E+10  k             1.0000       0.000        1
k01_10_13    log    factor       1000.00       1.00000E-10   1.00000E+10  k             1.0000       0.000        1
k01_10_14    log    factor       1000.00       1.00000E-10   1.00000E+10  k             1.0000       0.000        1
k01_10_15    log    factor       1000.00       1.00000E-10   1.00000E+10  k             1.0000       0.000        1
k01_10_16    log    factor       1000.00       1.00000E-10   1.00000E+10  k             1.0000       0.000        1
k01_10_17    log    factor       1000.00       1.00000E-10   1.00000E+10  k             1.0000       0.000        1
k01_10_18    log    factor       1000.00       1.00000E-10   1.00000E+10  k             1.0000       0.000        1
k01_10_19    log    factor       1000.00       1.00000E-10   1.00000E+10  k             1.0000       0.000        1
k01_10_20    log    factor       1000.00       1.00000E-10   1.00000E+10  k             1.0000       0.000        1
k01_10_21    log    factor       1000.00       1.00000E-10   1.00000E+10  k             1.0000       0.000        1
k01_10_22    log    factor       1000.00       1.00000E-10   1.00000E+10  k             1.0000       0.000        1
k01_10_23    log    factor       1000.00       1.00000E-10   1.00000E+10  k             1.0000       0.000        1
k01_10_24    log    factor       1000.00       1.00000E-10   1.00000E+10  k             1.0000       0.000        1
k01_10_25    log    factor       1000.00       1.00000E-10   1.00000E+10  k             1.0000       0.000        1
k01_11_01    log    factor       1000.00       1.00000E-10   1.00000E+10  k             1.0000       0.000        1
k01_11_02    log    factor       1000.00       1.00000E-10   1.00000E+10  k             1.0000       0.000        1
k01_11_03    log    factor       1000.00       1.00000E-10   1.00000E+10  k             1.0000       0.000        1