grid_henry_coarse_actual.spc
bore_coords_henry_coarse_conc.dat
bore_coords_henry_coarse_conc.dat
bore_samp_conc.dat
MT3D001.ucn
t
999
d
01/01/2011
00:00:00
100
0.1
conc.dat


