# LPF for MODFLOW, generated by Flopy.
        53    -1E+30         0, 
         0
         0
         1
         0
         0
OPEN/CLOSE              ref/hk_Layer_1.ref               1  (FREE) -1  #hk Layer 1                    
OPEN/CLOSE             ref/hk_Layer_1.ref               1  (FREE) -1  #vka Layer 1                   
