# Well file for MODFLOW, generated by Flopy.
         4         0
         4         0 # stress period 0
         1        12        11   -3444.9825074        Q1
         1        16        17   -50000.000000        Q2
         1        11        22   0.0000000E+00        Q3
         1        14        25   0.0000000E+00        Q4
         4         0 # stress period 1
         1        12        11   -3444.9825074        Q1
         1        16        17   -32562.211737        Q2
         1        11        22   0.0000000E+00        Q3
         1        14        25   -48992.805755        Q4
         4         0 # stress period 2
         1        12        11   -3444.9825074        Q1
         1        16        17   -26920.561183        Q2
         1        11        22   0.0000000E+00        Q3
         1        14        25   0.0000000E+00        Q4
         4         0 # stress period 3
         1        12        11   -3444.9825074        Q1
         1        16        17   -26881.670061        Q2
         1        11        22   0.0000000E+00        Q3
         1        14        25   -7645.8763916        Q4
         4         0 # stress period 4
         1        12        11   -3444.9825074        Q1
         1        16        17   -50000.000000        Q2
         1        11        22    0.0                 Q3
         1        14        25   0.0000000E+00        Q4
         4         0 # stress period 5
         1        12        11   -3444.9825074        Q1
         1        16        17   -32562.211737        Q2
         1        11        22   0.0                  Q3
         1        14        25   -48992.805755        Q4
         4         0 # stress period 6
         1        12        11   -3444.9825074        Q1
         1        16        17   -26920.561183        Q2
         1        11        22   0.0                  Q3
         1        14        25   0.0000000E+00        Q4
         4         0 # stress period 7
         1        12        11   -3444.9825074        Q1
         1        16        17   -26881.670061        Q2
         1        11        22   0.0                  Q3
         1        14        25   -7645.8763916        Q4
         4         0 # stress period 8
         1        12        11   -3444.9825074        Q1
         1        16        17   -50000.000000        Q2
         1        11        22   0.0000000E+00        Q3
         1        14        25   0.0000000E+00        Q4
         4         0 # stress period 9
         1        12        11   -3444.9825074        Q1
         1        16        17   -32562.211737        Q2
         1        11        22   0.0000000E+00        Q3
         1        14        25   -48992.805755        Q4
         4         0 # stress period 10
         1        12        11   -3444.9825074        Q1
         1        16        17   -26920.561183        Q2
         1        11        22   0.0000000E+00        Q3
         1        14        25   0.0000000E+00        Q4
         4         0 # stress period 11
         1        12        11   -3444.9825074        Q1
         1        16        17   -26881.670061        Q2
         1        11        22   0.0000000E+00        Q3
         1        14        25   -7645.8763916        Q4
