# Well file for MODFLOW, generated by Flopy.
         4         0
         4         0 # stress period 0
         1        12        11   -3449.1569841        Q1
         1        16        17   -50000.000000        Q2
         1        11        22   0.0000000E+00        Q3
         1        14        25   0.0000000E+00        Q4
         4         0 # stress period 1
         1        12        11   -3449.1569841        Q1
         1        16        17   -27883.349037        Q2
         1        11        22   0.0000000E+00        Q3
         1        14        25   -48667.493978        Q4
         4         0 # stress period 2
         1        12        11   -3449.1569841        Q1
         1        16        17   -26903.914725        Q2
         1        11        22   0.0000000E+00        Q3
         1        14        25   0.0000000E+00        Q4
         4         0 # stress period 3
         1        12        11   -3449.1569841        Q1
         1        16        17   -26681.990927        Q2
         1        11        22   0.0000000E+00        Q3
         1        14        25   -7802.7416625        Q4
         4         0 # stress period 4
         1        12        11   -3449.1569841        Q1
         1        16        17   -50000.000000        Q2
         1        11        22    0.0                 Q3
         1        14        25   0.0000000E+00        Q4
         4         0 # stress period 5
         1        12        11   -3449.1569841        Q1
         1        16        17   -27883.349037        Q2
         1        11        22   0.0                  Q3
         1        14        25   -48667.493978        Q4
         4         0 # stress period 6
         1        12        11   -3449.1569841        Q1
         1        16        17   -26903.914725        Q2
         1        11        22   0.0                  Q3
         1        14        25   0.0000000E+00        Q4
         4         0 # stress period 7
         1        12        11   -3449.1569841        Q1
         1        16        17   -26681.990927        Q2
         1        11        22   0.0                  Q3
         1        14        25   -7802.7416625        Q4
         4         0 # stress period 8
         1        12        11   -3449.1569841        Q1
         1        16        17   -50000.000000        Q2
         1        11        22   0.0000000E+00        Q3
         1        14        25   0.0000000E+00        Q4
         4         0 # stress period 9
         1        12        11   -3449.1569841        Q1
         1        16        17   -27883.349037        Q2
         1        11        22   0.0000000E+00        Q3
         1        14        25   -48667.493978        Q4
         4         0 # stress period 10
         1        12        11   -3449.1569841        Q1
         1        16        17   -26903.914725        Q2
         1        11        22   0.0000000E+00        Q3
         1        14        25   0.0000000E+00        Q4
         4         0 # stress period 11
         1        12        11   -3449.1569841        Q1
         1        16        17   -26681.990927        Q2
         1        11        22   0.0000000E+00        Q3
         1        14        25   -7802.7416625        Q4
