# Well file for MODFLOW, generated by Flopy.
         4         0
         4         0 # stress period 0
         1        12        11   0.0000000E+00        Q1
         1        16        17   -45378.955636        Q2
         1        11        22   0.0000000E+00        Q3
         1        14        25   0.0000000E+00        Q4
         4         0 # stress period 1
         1        12        11   0.0000000E+00        Q1
         1        16        17   -36230.343550        Q2
         1        11        22   0.0000000E+00        Q3
         1        14        25   -48769.656450        Q4
         4         0 # stress period 2
         1        12        11   0.0000000E+00        Q1
         1        16        17   -25660.679573        Q2
         1        11        22   0.0000000E+00        Q3
         1        14        25   0.0000000E+00        Q4
         4         0 # stress period 3
         1        12        11   0.0000000E+00        Q1
         1        16        17   -30981.353061        Q2
         1        11        22   0.0000000E+00        Q3
         1        14        25   -7406.3554002        Q4
         4         0 # stress period 4
         1        12        11   0.0000000E+00        Q1
         1        16        17   -45378.955636        Q2
         1        11        22    0.0                 Q3
         1        14        25   0.0000000E+00        Q4
         4         0 # stress period 5
         1        12        11   0.0000000E+00        Q1
         1        16        17   -36230.343550        Q2
         1        11        22   0.0                  Q3
         1        14        25   -48769.656450        Q4
         4         0 # stress period 6
         1        12        11   0.0000000E+00        Q1
         1        16        17   -25660.679573        Q2
         1        11        22   0.0                  Q3
         1        14        25   0.0000000E+00        Q4
         4         0 # stress period 7
         1        12        11   0.0000000E+00        Q1
         1        16        17   -30981.353061        Q2
         1        11        22   0.0                  Q3
         1        14        25   -7406.3554002        Q4
         4         0 # stress period 8
         1        12        11   0.0000000E+00        Q1
         1        16        17   -45378.955636        Q2
         1        11        22   0.0000000E+00        Q3
         1        14        25   0.0000000E+00        Q4
         4         0 # stress period 9
         1        12        11   0.0000000E+00        Q1
         1        16        17   -36230.343550        Q2
         1        11        22   0.0000000E+00        Q3
         1        14        25   -48769.656450        Q4
         4         0 # stress period 10
         1        12        11   0.0000000E+00        Q1
         1        16        17   -25660.679573        Q2
         1        11        22   0.0000000E+00        Q3
         1        14        25   0.0000000E+00        Q4
         4         0 # stress period 11
         1        12        11   0.0000000E+00        Q1
         1        16        17   -30981.353061        Q2
         1        11        22   0.0000000E+00        Q3
         1        14        25   -7406.3554002        Q4
