# Discretization file for MODFLOW, generated by Flopy.
         3        50        25        2         4         0
  0  0  0
CONSTANT    2.000000E+01                           #delr                          
CONSTANT    2.000000E+01                           #delc                          
INTERNAL               1 (25G15.6)  -1 #model_top                     
   1.000000E+01   1.000000E+01   1.000000E+01   1.000000E+01   1.000000E+01   1.000000E+01   1.000000E+01   1.000000E+01   1.000000E+01   1.000000E+01   1.000000E+01   1.000000E+01   1.000000E+01   1.000000E+01   1.000000E+01   1.000000E+01   1.000000E+01   1.000000E+01   1.000000E+01   1.000000E+01   1.000000E+01   1.000000E+01   1.000000E+01   1.000000E+01   1.000000E+01
   1.000000E+01   1.000000E+01   1.000000E+01   1.000000E+01   1.000000E+01   1.000000E+01   1.000000E+01   1.000000E+01   1.000000E+01   1.000000E+01   1.000000E+01   1.000000E+01   1.000000E+01   1.000000E+01   1.000000E+01   1.000000E+01   1.000000E+01   1.000000E+01   1.000000E+01   1.000000E+01   1.000000E+01   1.000000E+01   1.000000E+01   1.000000E+01   1.000000E+01
   1.000000E+01   1.000000E+01   1.000000E+01   1.000000E+01   1.000000E+01   1.000000E+01   1.000000E+01   1.000000E+01   1.000000E+01   1.000000E+01   1.000000E+01   1.000000E+01   1.000000E+01   1.000000E+01   1.000000E+01   1.000000E+01   1.000000E+01   1.000000E+01   1.000000E+01   1.000000E+01   1.000000E+01   1.000000E+01   1.000000E+01   1.000000E+01   1.000000E+01
   1.000000E+01   1.000000E+01   1.000000E+01   1.000000E+01   1.000000E+01   1.000000E+01   1.000000E+01   1.000000E+01   1.000000E+01   1.000000E+01   1.000000E+01   1.000000E+01   1.000000E+01   1.000000E+01   1.000000E+01   1.000000E+01   1.000000E+01   1.000000E+01   1.000000E+01   1.000000E+01   1.000000E+01   1.000000E+01   1.000000E+01   1.000000E+01   1.000000E+01
   1.000000E+01   1.000000E+01   1.000000E+01   1.000000E+01   1.000000E+01   1.000000E+01   1.000000E+01   1.000000E+01   1.000000E+01   1.000000E+01   1.000000E+01   1.000000E+01   1.000000E+01   1.000000E+01   1.000000E+01   1.000000E+01   1.000000E+01   1.000000E+01   1.000000E+01   1.000000E+01   1.000000E+01   1.000000E+01   1.000000E+01   1.000000E+01   1.000000E+01
   1.000000E+01   1.000000E+01   1.000000E+01   1.000000E+01   1.000000E+01   1.000000E+01   1.000000E+01   1.000000E+01   1.000000E+01   1.000000E+01   1.000000E+01   1.000000E+01   1.000000E+01   1.000000E+01   1.000000E+01   1.000000E+01   1.000000E+01   1.000000E+01   1.000000E+01   1.000000E+01   1.000000E+01   1.000000E+01   1.000000E+01   1.000000E+01   1.000000E+01
   1.000000E+01   1.000000E+01   1.000000E+01   1.000000E+01   1.000000E+01   1.000000E+01   1.000000E+01   1.000000E+01   1.000000E+01   1.000000E+01   1.000000E+01   1.000000E+01   1.000000E+01   1.000000E+01   1.000000E+01   1.000000E+01   1.000000E+01   1.000000E+01   1.000000E+01   1.000000E+01   1.000000E+01   1.000000E+01   1.000000E+01   1.000000E+01   1.000000E+01
   1.000000E+01   1.000000E+01   1.000000E+01   1.000000E+01   1.000000E+01   1.000000E+01   1.000000E+01   1.000000E+01   1.000000E+01   1.000000E+01   1.000000E+01   1.000000E+01   1.000000E+01   1.000000E+01   1.000000E+01   1.000000E+01   1.000000E+01   1.000000E+01   1.000000E+01   1.000000E+01   1.000000E+01   1.000000E+01   1.000000E+01   1.000000E+01   1.000000E+01
   1.000000E+01   1.000000E+01   1.000000E+01   1.000000E+01   1.000000E+01   1.000000E+01   1.000000E+01   1.000000E+01   1.000000E+01   1.000000E+01   1.000000E+01   1.000000E+01   1.000000E+01   1.000000E+01   1.000000E+01   1.000000E+01   1.000000E+01   1.000000E+01   1.000000E+01   1.000000E+01   1.000000E+01   1.000000E+01   1.000000E+01   1.000000E+01   1.000000E+01
   1.000000E+01   1.000000E+01   1.000000E+01   1.000000E+01   1.000000E+01   1.000000E+01   1.000000E+01   1.000000E+01   1.000000E+01   1.000000E+01   1.000000E+01   1.000000E+01   1.000000E+01   1.000000E+01   1.000000E+01   1.000000E+01   1.000000E+01   1.000000E+01   1.000000E+01   1.000000E+01   1.000000E+01   1.000000E+01   1.000000E+01   1.000000E+01   1.000000E+01
   1.000000E+01   1.000000E+01   1.000000E+01   1.000000E+01   1.000000E+01   1.000000E+01   1.000000E+01   1.000000E+01   1.000000E+01   1.000000E+01   1.000000E+01   1.000000E+01   1.000000E+01   1.000000E+01   1.000000E+01   1.000000E+01   1.000000E+01   1.000000E+01   1.000000E+01   1.000000E+01   1.000000E+01   1.000000E+01   1.000000E+01   1.000000E+01   1.000000E+01
   1.000000E+01   1.000000E+01   1.000000E+01   1.000000E+01   1.000000E+01   1.000000E+01   1.000000E+01   1.000000E+01   1.000000E+01   1.000000E+01   1.000000E+01   1.000000E+01   1.000000E+01   1.000000E+01   1.000000E+01   1.000000E+01   1.000000E+01   1.000000E+01   1.000000E+01   1.000000E+01   1.000000E+01   1.000000E+01   1.000000E+01   1.000000E+01   1.000000E+01
   1.000000E+01   1.000000E+01   1.000000E+01   1.000000E+01   1.000000E+01   1.000000E+01   1.000000E+01   1.000000E+01   1.000000E+01   1.000000E+01   1.000000E+01   1.000000E+01   1.000000E+01   1.000000E+01   1.000000E+01   1.000000E+01   1.000000E+01   1.000000E+01   1.000000E+01   1.000000E+01   1.000000E+01   1.000000E+01   1.000000E+01   1.000000E+01   1.000000E+01
   1.000000E+01   1.000000E+01   1.000000E+01   1.000000E+01   1.000000E+01   1.000000E+01   1.000000E+01   1.000000E+01   1.000000E+01   1.000000E+01   1.000000E+01   1.000000E+01   1.000000E+01   1.000000E+01   1.000000E+01   1.000000E+01   1.000000E+01   1.000000E+01   1.000000E+01   1.000000E+01   1.000000E+01   1.000000E+01   1.000000E+01   1.000000E+01   1.000000E+01
   1.000000E+01   1.000000E+01   1.000000E+01   1.000000E+01   1.000000E+01   1.000000E+01   1.000000E+01   1.000000E+01   1.000000E+01   1.000000E+01   1.000000E+01   1.000000E+01   1.000000E+01   1.000000E+01   1.000000E+01   1.000000E+01   1.000000E+01   1.000000E+01   1.000000E+01   1.000000E+01   1.000000E+01   1.000000E+01   1.000000E+01   1.000000E+01   1.000000E+01
   1.000000E+01   1.000000E+01   1.000000E+01   1.000000E+01   1.000000E+01   1.000000E+01   1.000000E+01   1.000000E+01   1.000000E+01   1.000000E+01   1.000000E+01   1.000000E+01   1.000000E+01   1.000000E+01   1.000000E+01   1.000000E+01   1.000000E+01   1.000000E+01   1.000000E+01   1.000000E+01   1.000000E+01   1.000000E+01   1.000000E+01   1.000000E+01   1.000000E+01
   1.000000E+01   1.000000E+01   1.000000E+01   1.000000E+01   1.000000E+01   1.000000E+01   1.000000E+01   1.000000E+01   1.000000E+01   1.000000E+01   1.000000E+01   1.000000E+01   1.000000E+01   1.000000E+01   1.000000E+01   1.000000E+01   1.000000E+01   1.000000E+01   1.000000E+01   1.000000E+01   1.000000E+01   1.000000E+01   1.000000E+01   1.000000E+01   1.000000E+01
   1.000000E+01   1.000000E+01   1.000000E+01   1.000000E+01   1.000000E+01   1.000000E+01   1.000000E+01   1.000000E+01   1.000000E+01   1.000000E+01   1.000000E+01   1.000000E+01   1.000000E+01   1.000000E+01   1.000000E+01   1.000000E+01   1.000000E+01   1.000000E+01   1.000000E+01   1.000000E+01   1.000000E+01   1.000000E+01   1.000000E+01   1.000000E+01   1.000000E+01
   1.000000E+01   1.000000E+01   1.000000E+01   1.000000E+01   1.000000E+01   1.000000E+01   1.000000E+01   1.000000E+01   1.000000E+01   1.000000E+01   1.000000E+01   1.000000E+01   1.000000E+01   1.000000E+01   1.000000E+01   1.000000E+01   1.000000E+01   1.000000E+01   1.000000E+01   1.000000E+01   1.000000E+01   1.000000E+01   1.000000E+01   1.000000E+01   1.000000E+01
   1.000000E+01   1.000000E+01   1.000000E+01   1.000000E+01   1.000000E+01   1.000000E+01   1.000000E+01   1.000000E+01   1.000000E+01   1.000000E+01   1.000000E+01   1.000000E+01   1.000000E+01   1.000000E+01   1.000000E+01   1.000000E+01   1.000000E+01   1.000000E+01   1.000000E+01   1.000000E+01   1.000000E+01   1.000000E+01   1.000000E+01   1.000000E+01   1.000000E+01
   1.000000E+01   1.000000E+01   1.000000E+01   1.000000E+01   1.000000E+01   1.000000E+01   1.000000E+01   1.000000E+01   1.000000E+01   1.000000E+01   1.000000E+01   1.000000E+01   1.000000E+01   1.000000E+01   1.000000E+01   1.000000E+01   1.000000E+01   1.000000E+01   1.000000E+01   1.000000E+01   1.000000E+01   1.000000E+01   1.000000E+01   1.000000E+01   1.000000E+01
   1.000000E+01   1.000000E+01   1.000000E+01   1.000000E+01   1.000000E+01   1.000000E+01   1.000000E+01   1.000000E+01   1.000000E+01   1.000000E+01   1.000000E+01   1.000000E+01   1.000000E+01   1.000000E+01   1.000000E+01   1.000000E+01   1.000000E+01   1.000000E+01   1.000000E+01   1.000000E+01   1.000000E+01   1.000000E+01   1.000000E+01   1.000000E+01   1.000000E+01
   1.000000E+01   1.000000E+01   1.000000E+01   1.000000E+01   1.000000E+01   1.000000E+01   1.000000E+01   1.000000E+01   1.000000E+01   1.000000E+01   1.000000E+01   1.000000E+01   1.000000E+01   1.000000E+01   1.000000E+01   1.000000E+01   1.000000E+01   1.000000E+01   1.000000E+01   1.000000E+01   1.000000E+01   1.000000E+01   1.000000E+01   1.000000E+01   1.000000E+01
   1.000000E+01   1.000000E+01   1.000000E+01   1.000000E+01   1.000000E+01   1.000000E+01   1.000000E+01   1.000000E+01   1.000000E+01   1.000000E+01   1.000000E+01   1.000000E+01   1.000000E+01   1.000000E+01   1.000000E+01   1.000000E+01   1.000000E+01   1.000000E+01   1.000000E+01   1.000000E+01   1.000000E+01   1.000000E+01   1.000000E+01   1.000000E+01   1.000000E+01
   1.000000E+01   1.000000E+01   1.000000E+01   1.000000E+01   1.000000E+01   1.000000E+01   1.000000E+01   1.000000E+01   1.000000E+01   1.000000E+01   1.000000E+01   1.000000E+01   1.000000E+01   1.000000E+01   1.000000E+01   1.000000E+01   1.000000E+01   1.000000E+01   1.000000E+01   1.000000E+01   1.000000E+01   1.000000E+01   1.000000E+01   1.000000E+01   1.000000E+01
   1.000000E+01   1.000000E+01   1.000000E+01   1.000000E+01   1.000000E+01   1.000000E+01   1.000000E+01   1.000000E+01   1.000000E+01   1.000000E+01   1.000000E+01   1.000000E+01   1.000000E+01   1.000000E+01   1.000000E+01   1.000000E+01   1.000000E+01   1.000000E+01   1.000000E+01   1.000000E+01   1.000000E+01   1.000000E+01   1.000000E+01   1.000000E+01   1.000000E+01
   1.000000E+01   1.000000E+01   1.000000E+01   1.000000E+01   1.000000E+01   1.000000E+01   1.000000E+01   1.000000E+01   1.000000E+01   1.000000E+01   1.000000E+01   1.000000E+01   1.000000E+01   1.000000E+01   1.000000E+01   1.000000E+01   1.000000E+01   1.000000E+01   1.000000E+01   1.000000E+01   1.000000E+01   1.000000E+01   1.000000E+01   1.000000E+01   1.000000E+01
   1.000000E+01   1.000000E+01   1.000000E+01   1.000000E+01   1.000000E+01   1.000000E+01   1.000000E+01   1.000000E+01   1.000000E+01   1.000000E+01   1.000000E+01   1.000000E+01   1.000000E+01   1.000000E+01   1.000000E+01   1.000000E+01   1.000000E+01   1.000000E+01   1.000000E+01   1.000000E+01   1.000000E+01   1.000000E+01   1.000000E+01   1.000000E+01   1.000000E+01
   1.000000E+01   1.000000E+01   1.000000E+01   1.000000E+01   1.000000E+01   1.000000E+01   1.000000E+01   1.000000E+01   1.000000E+01   1.000000E+01   1.000000E+01   1.000000E+01   1.000000E+01   1.000000E+01   1.000000E+01   1.000000E+01   1.000000E+01   1.000000E+01   1.000000E+01   1.000000E+01   1.000000E+01   1.000000E+01   1.000000E+01   1.000000E+01   1.000000E+01
   1.000000E+01   1.000000E+01   1.000000E+01   1.000000E+01   1.000000E+01   1.000000E+01   1.000000E+01   1.000000E+01   1.000000E+01   1.000000E+01   1.000000E+01   1.000000E+01   1.000000E+01   1.000000E+01   1.000000E+01   1.000000E+01   1.000000E+01   1.000000E+01   1.000000E+01   1.000000E+01   1.000000E+01   1.000000E+01   1.000000E+01   1.000000E+01   1.000000E+01
   1.000000E+01   1.000000E+01   1.000000E+01   1.000000E+01   1.000000E+01   1.000000E+01   1.000000E+01   1.000000E+01   1.000000E+01   1.000000E+01   1.000000E+01   1.000000E+01   1.000000E+01   1.000000E+01   1.000000E+01   1.000000E+01   1.000000E+01   1.000000E+01   1.000000E+01   1.000000E+01   1.000000E+01   1.000000E+01   1.000000E+01   1.000000E+01   1.000000E+01
   1.000000E+01   1.000000E+01   1.000000E+01   1.000000E+01   1.000000E+01   1.000000E+01   1.000000E+01   1.000000E+01   1.000000E+01   1.000000E+01   1.000000E+01   1.000000E+01   1.000000E+01   1.000000E+01   1.000000E+01   1.000000E+01   1.000000E+01   1.000000E+01   1.000000E+01   1.000000E+01   1.000000E+01   1.000000E+01   1.000000E+01   1.000000E+01   1.000000E+01
   1.000000E+01   1.000000E+01   1.000000E+01   1.000000E+01   1.000000E+01   1.000000E+01   1.000000E+01   1.000000E+01   1.000000E+01   1.000000E+01   1.000000E+01   1.000000E+01   1.000000E+01   1.000000E+01   1.000000E+01   1.000000E+01   1.000000E+01   1.000000E+01   1.000000E+01   1.000000E+01   1.000000E+01   1.000000E+01   1.000000E+01   1.000000E+01   1.000000E+01
   1.000000E+01   1.000000E+01   1.000000E+01   1.000000E+01   1.000000E+01   1.000000E+01   1.000000E+01   1.000000E+01   1.000000E+01   1.000000E+01   1.000000E+01   1.000000E+01   1.000000E+01   1.000000E+01   1.000000E+01   1.000000E+01   1.000000E+01   1.000000E+01   1.000000E+01   1.000000E+01   1.000000E+01   1.000000E+01   1.000000E+01   1.000000E+01   1.000000E+01
   1.000000E+01   1.000000E+01   1.000000E+01   1.000000E+01   1.000000E+01   1.000000E+01   1.000000E+01   1.000000E+01   1.000000E+01   1.000000E+01   1.000000E+01   1.000000E+01   1.000000E+01   1.000000E+01   1.000000E+01   1.000000E+01   1.000000E+01   1.000000E+01   1.000000E+01   1.000000E+01   1.000000E+01   1.000000E+01   1.000000E+01   1.000000E+01   1.000000E+01
   1.000000E+01   1.000000E+01   1.000000E+01   1.000000E+01   1.000000E+01   1.000000E+01   1.000000E+01   1.000000E+01   1.000000E+01   1.000000E+01   1.000000E+01   1.000000E+01   1.000000E+01   1.000000E+01   1.000000E+01   1.000000E+01   1.000000E+01   1.000000E+01   1.000000E+01   1.000000E+01   1.000000E+01   1.000000E+01   1.000000E+01   1.000000E+01   1.000000E+01
   1.000000E+01   1.000000E+01   1.000000E+01   1.000000E+01   1.000000E+01   1.000000E+01   1.000000E+01   1.000000E+01   1.000000E+01   1.000000E+01   1.000000E+01   1.000000E+01   1.000000E+01   1.000000E+01   1.000000E+01   1.000000E+01   1.000000E+01   1.000000E+01   1.000000E+01   1.000000E+01   1.000000E+01   1.000000E+01   1.000000E+01   1.000000E+01   1.000000E+01
   1.000000E+01   1.000000E+01   1.000000E+01   1.000000E+01   1.000000E+01   1.000000E+01   1.000000E+01   1.000000E+01   1.000000E+01   1.000000E+01   1.000000E+01   1.000000E+01   1.000000E+01   1.000000E+01   1.000000E+01   1.000000E+01   1.000000E+01   1.000000E+01   1.000000E+01   1.000000E+01   1.000000E+01   1.000000E+01   1.000000E+01   1.000000E+01   1.000000E+01
   1.000000E+01   1.000000E+01   1.000000E+01   1.000000E+01   1.000000E+01   1.000000E+01   1.000000E+01   1.000000E+01   1.000000E+01   1.000000E+01   1.000000E+01   1.000000E+01   1.000000E+01   1.000000E+01   1.000000E+01   1.000000E+01   1.000000E+01   1.000000E+01   1.000000E+01   1.000000E+01   1.000000E+01   1.000000E+01   1.000000E+01   1.000000E+01   1.000000E+01
   1.000000E+01   1.000000E+01   1.000000E+01   1.000000E+01   1.000000E+01   1.000000E+01   1.000000E+01   1.000000E+01   1.000000E+01   1.000000E+01   1.000000E+01   1.000000E+01   1.000000E+01   1.000000E+01   1.000000E+01   1.000000E+01   1.000000E+01   1.000000E+01   1.000000E+01   1.000000E+01   1.000000E+01   1.000000E+01   1.000000E+01   1.000000E+01   1.000000E+01
   1.000000E+01   1.000000E+01   1.000000E+01   1.000000E+01   1.000000E+01   1.000000E+01   1.000000E+01   1.000000E+01   1.000000E+01   1.000000E+01   1.000000E+01   1.000000E+01   1.000000E+01   1.000000E+01   1.000000E+01   1.000000E+01   1.000000E+01   1.000000E+01   1.000000E+01   1.000000E+01   1.000000E+01   1.000000E+01   1.000000E+01   1.000000E+01   1.000000E+01
   1.000000E+01   1.000000E+01   1.000000E+01   1.000000E+01   1.000000E+01   1.000000E+01   1.000000E+01   1.000000E+01   1.000000E+01   1.000000E+01   1.000000E+01   1.000000E+01   1.000000E+01   1.000000E+01   1.000000E+01   1.000000E+01   1.000000E+01   1.000000E+01   1.000000E+01   1.000000E+01   1.000000E+01   1.000000E+01   1.000000E+01   1.000000E+01   1.000000E+01
   1.000000E+01   1.000000E+01   1.000000E+01   1.000000E+01   1.000000E+01   1.000000E+01   1.000000E+01   1.000000E+01   1.000000E+01   1.000000E+01   1.000000E+01   1.000000E+01   1.000000E+01   1.000000E+01   1.000000E+01   1.000000E+01   1.000000E+01   1.000000E+01   1.000000E+01   1.000000E+01   1.000000E+01   1.000000E+01   1.000000E+01   1.000000E+01   1.000000E+01
   1.000000E+01   1.000000E+01   1.000000E+01   1.000000E+01   1.000000E+01   1.000000E+01   1.000000E+01   1.000000E+01   1.000000E+01   1.000000E+01   1.000000E+01   1.000000E+01   1.000000E+01   1.000000E+01   1.000000E+01   1.000000E+01   1.000000E+01   1.000000E+01   1.000000E+01   1.000000E+01   1.000000E+01   1.000000E+01   1.000000E+01   1.000000E+01   1.000000E+01
   1.000000E+01   1.000000E+01   1.000000E+01   1.000000E+01   1.000000E+01   1.000000E+01   1.000000E+01   1.000000E+01   1.000000E+01   1.000000E+01   1.000000E+01   1.000000E+01   1.000000E+01   1.000000E+01   1.000000E+01   1.000000E+01   1.000000E+01   1.000000E+01   1.000000E+01   1.000000E+01   1.000000E+01   1.000000E+01   1.000000E+01   1.000000E+01   1.000000E+01
   1.000000E+01   1.000000E+01   1.000000E+01   1.000000E+01   1.000000E+01   1.000000E+01   1.000000E+01   1.000000E+01   1.000000E+01   1.000000E+01   1.000000E+01   1.000000E+01   1.000000E+01   1.000000E+01   1.000000E+01   1.000000E+01   1.000000E+01   1.000000E+01   1.000000E+01   1.000000E+01   1.000000E+01   1.000000E+01   1.000000E+01   1.000000E+01   1.000000E+01
   1.000000E+01   1.000000E+01   1.000000E+01   1.000000E+01   1.000000E+01   1.000000E+01   1.000000E+01   1.000000E+01   1.000000E+01   1.000000E+01   1.000000E+01   1.000000E+01   1.000000E+01   1.000000E+01   1.000000E+01   1.000000E+01   1.000000E+01   1.000000E+01   1.000000E+01   1.000000E+01   1.000000E+01   1.000000E+01   1.000000E+01   1.000000E+01   1.000000E+01
   1.000000E+01   1.000000E+01   1.000000E+01   1.000000E+01   1.000000E+01   1.000000E+01   1.000000E+01   1.000000E+01   1.000000E+01   1.000000E+01   1.000000E+01   1.000000E+01   1.000000E+01   1.000000E+01   1.000000E+01   1.000000E+01   1.000000E+01   1.000000E+01   1.000000E+01   1.000000E+01   1.000000E+01   1.000000E+01   1.000000E+01   1.000000E+01   1.000000E+01
   1.000000E+01   1.000000E+01   1.000000E+01   1.000000E+01   1.000000E+01   1.000000E+01   1.000000E+01   1.000000E+01   1.000000E+01   1.000000E+01   1.000000E+01   1.000000E+01   1.000000E+01   1.000000E+01   1.000000E+01   1.000000E+01   1.000000E+01   1.000000E+01   1.000000E+01   1.000000E+01   1.000000E+01   1.000000E+01   1.000000E+01   1.000000E+01   1.000000E+01
  -3.000000E+00  -3.000000E+00  -3.000000E+00  -3.000000E+00  -3.000000E+00  -3.000000E+00  -3.000000E+00  -3.000000E+00  -3.000000E+00  -3.000000E+00  -3.000000E+00  -3.000000E+00  -3.000000E+00  -3.000000E+00  -3.000000E+00  -3.000000E+00  -3.000000E+00  -3.000000E+00  -3.000000E+00  -3.000000E+00  -3.000000E+00  -3.000000E+00  -3.000000E+00  -3.000000E+00  -3.000000E+00
INTERNAL               1 (25G15.6)  -1 #botm Layer 1                  
  -3.333333E+00  -3.333333E+00  -3.333333E+00  -3.333333E+00  -3.333333E+00  -3.333333E+00  -3.333333E+00  -3.333333E+00  -3.333333E+00  -3.333333E+00  -3.333333E+00  -3.333333E+00  -3.333333E+00  -3.333333E+00  -3.333333E+00  -3.333333E+00  -3.333333E+00  -3.333333E+00  -3.333333E+00  -3.333333E+00  -3.333333E+00  -3.333333E+00  -3.333333E+00  -3.333333E+00  -3.333333E+00
  -3.333333E+00  -3.333333E+00  -3.333333E+00  -3.333333E+00  -3.333333E+00  -3.333333E+00  -3.333333E+00  -3.333333E+00  -3.333333E+00  -3.333333E+00  -3.333333E+00  -3.333333E+00  -3.333333E+00  -3.333333E+00  -3.333333E+00  -3.333333E+00  -3.333333E+00  -3.333333E+00  -3.333333E+00  -3.333333E+00  -3.333333E+00  -3.333333E+00  -3.333333E+00  -3.333333E+00  -3.333333E+00
  -3.333333E+00  -3.333333E+00  -3.333333E+00  -3.333333E+00  -3.333333E+00  -3.333333E+00  -3.333333E+00  -3.333333E+00  -3.333333E+00  -3.333333E+00  -3.333333E+00  -3.333333E+00  -3.333333E+00  -3.333333E+00  -3.333333E+00  -3.333333E+00  -3.333333E+00  -3.333333E+00  -3.333333E+00  -3.333333E+00  -3.333333E+00  -3.333333E+00  -3.333333E+00  -3.333333E+00  -3.333333E+00
  -3.333333E+00  -3.333333E+00  -3.333333E+00  -3.333333E+00  -3.333333E+00  -3.333333E+00  -3.333333E+00  -3.333333E+00  -3.333333E+00  -3.333333E+00  -3.333333E+00  -3.333333E+00  -3.333333E+00  -3.333333E+00  -3.333333E+00  -3.333333E+00  -3.333333E+00  -3.333333E+00  -3.333333E+00  -3.333333E+00  -3.333333E+00  -3.333333E+00  -3.333333E+00  -3.333333E+00  -3.333333E+00
  -3.333333E+00  -3.333333E+00  -3.333333E+00  -3.333333E+00  -3.333333E+00  -3.333333E+00  -3.333333E+00  -3.333333E+00  -3.333333E+00  -3.333333E+00  -3.333333E+00  -3.333333E+00  -3.333333E+00  -3.333333E+00  -3.333333E+00  -3.333333E+00  -3.333333E+00  -3.333333E+00  -3.333333E+00  -3.333333E+00  -3.333333E+00  -3.333333E+00  -3.333333E+00  -3.333333E+00  -3.333333E+00
  -3.333333E+00  -3.333333E+00  -3.333333E+00  -3.333333E+00  -3.333333E+00  -3.333333E+00  -3.333333E+00  -3.333333E+00  -3.333333E+00  -3.333333E+00  -3.333333E+00  -3.333333E+00  -3.333333E+00  -3.333333E+00  -3.333333E+00  -3.333333E+00  -3.333333E+00  -3.333333E+00  -3.333333E+00  -3.333333E+00  -3.333333E+00  -3.333333E+00  -3.333333E+00  -3.333333E+00  -3.333333E+00
  -3.333333E+00  -3.333333E+00  -3.333333E+00  -3.333333E+00  -3.333333E+00  -3.333333E+00  -3.333333E+00  -3.333333E+00  -3.333333E+00  -3.333333E+00  -3.333333E+00  -3.333333E+00  -3.333333E+00  -3.333333E+00  -3.333333E+00  -3.333333E+00  -3.333333E+00  -3.333333E+00  -3.333333E+00  -3.333333E+00  -3.333333E+00  -3.333333E+00  -3.333333E+00  -3.333333E+00  -3.333333E+00
  -3.333333E+00  -3.333333E+00  -3.333333E+00  -3.333333E+00  -3.333333E+00  -3.333333E+00  -3.333333E+00  -3.333333E+00  -3.333333E+00  -3.333333E+00  -3.333333E+00  -3.333333E+00  -3.333333E+00  -3.333333E+00  -3.333333E+00  -3.333333E+00  -3.333333E+00  -3.333333E+00  -3.333333E+00  -3.333333E+00  -3.333333E+00  -3.333333E+00  -3.333333E+00  -3.333333E+00  -3.333333E+00
  -3.333333E+00  -3.333333E+00  -3.333333E+00  -3.333333E+00  -3.333333E+00  -3.333333E+00  -3.333333E+00  -3.333333E+00  -3.333333E+00  -3.333333E+00  -3.333333E+00  -3.333333E+00  -3.333333E+00  -3.333333E+00  -3.333333E+00  -3.333333E+00  -3.333333E+00  -3.333333E+00  -3.333333E+00  -3.333333E+00  -3.333333E+00  -3.333333E+00  -3.333333E+00  -3.333333E+00  -3.333333E+00
  -3.333333E+00  -3.333333E+00  -3.333333E+00  -3.333333E+00  -3.333333E+00  -3.333333E+00  -3.333333E+00  -3.333333E+00  -3.333333E+00  -3.333333E+00  -3.333333E+00  -3.333333E+00  -3.333333E+00  -3.333333E+00  -3.333333E+00  -3.333333E+00  -3.333333E+00  -3.333333E+00  -3.333333E+00  -3.333333E+00  -3.333333E+00  -3.333333E+00  -3.333333E+00  -3.333333E+00  -3.333333E+00
  -3.333333E+00  -3.333333E+00  -3.333333E+00  -3.333333E+00  -3.333333E+00  -3.333333E+00  -3.333333E+00  -3.333333E+00  -3.333333E+00  -3.333333E+00  -3.333333E+00  -3.333333E+00  -3.333333E+00  -3.333333E+00  -3.333333E+00  -3.333333E+00  -3.333333E+00  -3.333333E+00  -3.333333E+00  -3.333333E+00  -3.333333E+00  -3.333333E+00  -3.333333E+00  -3.333333E+00  -3.333333E+00
  -3.333333E+00  -3.333333E+00  -3.333333E+00  -3.333333E+00  -3.333333E+00  -3.333333E+00  -3.333333E+00  -3.333333E+00  -3.333333E+00  -3.333333E+00  -3.333333E+00  -3.333333E+00  -3.333333E+00  -3.333333E+00  -3.333333E+00  -3.333333E+00  -3.333333E+00  -3.333333E+00  -3.333333E+00  -3.333333E+00  -3.333333E+00  -3.333333E+00  -3.333333E+00  -3.333333E+00  -3.333333E+00
  -3.333333E+00  -3.333333E+00  -3.333333E+00  -3.333333E+00  -3.333333E+00  -3.333333E+00  -3.333333E+00  -3.333333E+00  -3.333333E+00  -3.333333E+00  -3.333333E+00  -3.333333E+00  -3.333333E+00  -3.333333E+00  -3.333333E+00  -3.333333E+00  -3.333333E+00  -3.333333E+00  -3.333333E+00  -3.333333E+00  -3.333333E+00  -3.333333E+00  -3.333333E+00  -3.333333E+00  -3.333333E+00
  -3.333333E+00  -3.333333E+00  -3.333333E+00  -3.333333E+00  -3.333333E+00  -3.333333E+00  -3.333333E+00  -3.333333E+00  -3.333333E+00  -3.333333E+00  -3.333333E+00  -3.333333E+00  -3.333333E+00  -3.333333E+00  -3.333333E+00  -3.333333E+00  -3.333333E+00  -3.333333E+00  -3.333333E+00  -3.333333E+00  -3.333333E+00  -3.333333E+00  -3.333333E+00  -3.333333E+00  -3.333333E+00
  -3.333333E+00  -3.333333E+00  -3.333333E+00  -3.333333E+00  -3.333333E+00  -3.333333E+00  -3.333333E+00  -3.333333E+00  -3.333333E+00  -3.333333E+00  -3.333333E+00  -3.333333E+00  -3.333333E+00  -3.333333E+00  -3.333333E+00  -3.333333E+00  -3.333333E+00  -3.333333E+00  -3.333333E+00  -3.333333E+00  -3.333333E+00  -3.333333E+00  -3.333333E+00  -3.333333E+00  -3.333333E+00
  -3.333333E+00  -3.333333E+00  -3.333333E+00  -3.333333E+00  -3.333333E+00  -3.333333E+00  -3.333333E+00  -3.333333E+00  -3.333333E+00  -3.333333E+00  -3.333333E+00  -3.333333E+00  -3.333333E+00  -3.333333E+00  -3.333333E+00  -3.333333E+00  -3.333333E+00  -3.333333E+00  -3.333333E+00  -3.333333E+00  -3.333333E+00  -3.333333E+00  -3.333333E+00  -3.333333E+00  -3.333333E+00
  -3.333333E+00  -3.333333E+00  -3.333333E+00  -3.333333E+00  -3.333333E+00  -3.333333E+00  -3.333333E+00  -3.333333E+00  -3.333333E+00  -3.333333E+00  -3.333333E+00  -3.333333E+00  -3.333333E+00  -3.333333E+00  -3.333333E+00  -3.333333E+00  -3.333333E+00  -3.333333E+00  -3.333333E+00  -3.333333E+00  -3.333333E+00  -3.333333E+00  -3.333333E+00  -3.333333E+00  -3.333333E+00
  -3.333333E+00  -3.333333E+00  -3.333333E+00  -3.333333E+00  -3.333333E+00  -3.333333E+00  -3.333333E+00  -3.333333E+00  -3.333333E+00  -3.333333E+00  -3.333333E+00  -3.333333E+00  -3.333333E+00  -3.333333E+00  -3.333333E+00  -3.333333E+00  -3.333333E+00  -3.333333E+00  -3.333333E+00  -3.333333E+00  -3.333333E+00  -3.333333E+00  -3.333333E+00  -3.333333E+00  -3.333333E+00
  -3.333333E+00  -3.333333E+00  -3.333333E+00  -3.333333E+00  -3.333333E+00  -3.333333E+00  -3.333333E+00  -3.333333E+00  -3.333333E+00  -3.333333E+00  -3.333333E+00  -3.333333E+00  -3.333333E+00  -3.333333E+00  -3.333333E+00  -3.333333E+00  -3.333333E+00  -3.333333E+00  -3.333333E+00  -3.333333E+00  -3.333333E+00  -3.333333E+00  -3.333333E+00  -3.333333E+00  -3.333333E+00
  -3.333333E+00  -3.333333E+00  -3.333333E+00  -3.333333E+00  -3.333333E+00  -3.333333E+00  -3.333333E+00  -3.333333E+00  -3.333333E+00  -3.333333E+00  -3.333333E+00  -3.333333E+00  -3.333333E+00  -3.333333E+00  -3.333333E+00  -3.333333E+00  -3.333333E+00  -3.333333E+00  -3.333333E+00  -3.333333E+00  -3.333333E+00  -3.333333E+00  -3.333333E+00  -3.333333E+00  -3.333333E+00
  -3.333333E+00  -3.333333E+00  -3.333333E+00  -3.333333E+00  -3.333333E+00  -3.333333E+00  -3.333333E+00  -3.333333E+00  -3.333333E+00  -3.333333E+00  -3.333333E+00  -3.333333E+00  -3.333333E+00  -3.333333E+00  -3.333333E+00  -3.333333E+00  -3.333333E+00  -3.333333E+00  -3.333333E+00  -3.333333E+00  -3.333333E+00  -3.333333E+00  -3.333333E+00  -3.333333E+00  -3.333333E+00
  -3.333333E+00  -3.333333E+00  -3.333333E+00  -3.333333E+00  -3.333333E+00  -3.333333E+00  -3.333333E+00  -3.333333E+00  -3.333333E+00  -3.333333E+00  -3.333333E+00  -3.333333E+00  -3.333333E+00  -3.333333E+00  -3.333333E+00  -3.333333E+00  -3.333333E+00  -3.333333E+00  -3.333333E+00  -3.333333E+00  -3.333333E+00  -3.333333E+00  -3.333333E+00  -3.333333E+00  -3.333333E+00
  -3.333333E+00  -3.333333E+00  -3.333333E+00  -3.333333E+00  -3.333333E+00  -3.333333E+00  -3.333333E+00  -3.333333E+00  -3.333333E+00  -3.333333E+00  -3.333333E+00  -3.333333E+00  -3.333333E+00  -3.333333E+00  -3.333333E+00  -3.333333E+00  -3.333333E+00  -3.333333E+00  -3.333333E+00  -3.333333E+00  -3.333333E+00  -3.333333E+00  -3.333333E+00  -3.333333E+00  -3.333333E+00
  -3.333333E+00  -3.333333E+00  -3.333333E+00  -3.333333E+00  -3.333333E+00  -3.333333E+00  -3.333333E+00  -3.333333E+00  -3.333333E+00  -3.333333E+00  -3.333333E+00  -3.333333E+00  -3.333333E+00  -3.333333E+00  -3.333333E+00  -3.333333E+00  -3.333333E+00  -3.333333E+00  -3.333333E+00  -3.333333E+00  -3.333333E+00  -3.333333E+00  -3.333333E+00  -3.333333E+00  -3.333333E+00
  -3.333333E+00  -3.333333E+00  -3.333333E+00  -3.333333E+00  -3.333333E+00  -3.333333E+00  -3.333333E+00  -3.333333E+00  -3.333333E+00  -3.333333E+00  -3.333333E+00  -3.333333E+00  -3.333333E+00  -3.333333E+00  -3.333333E+00  -3.333333E+00  -3.333333E+00  -3.333333E+00  -3.333333E+00  -3.333333E+00  -3.333333E+00  -3.333333E+00  -3.333333E+00  -3.333333E+00  -3.333333E+00
  -3.333333E+00  -3.333333E+00  -3.333333E+00  -3.333333E+00  -3.333333E+00  -3.333333E+00  -3.333333E+00  -3.333333E+00  -3.333333E+00  -3.333333E+00  -3.333333E+00  -3.333333E+00  -3.333333E+00  -3.333333E+00  -3.333333E+00  -3.333333E+00  -3.333333E+00  -3.333333E+00  -3.333333E+00  -3.333333E+00  -3.333333E+00  -3.333333E+00  -3.333333E+00  -3.333333E+00  -3.333333E+00
  -3.333333E+00  -3.333333E+00  -3.333333E+00  -3.333333E+00  -3.333333E+00  -3.333333E+00  -3.333333E+00  -3.333333E+00  -3.333333E+00  -3.333333E+00  -3.333333E+00  -3.333333E+00  -3.333333E+00  -3.333333E+00  -3.333333E+00  -3.333333E+00  -3.333333E+00  -3.333333E+00  -3.333333E+00  -3.333333E+00  -3.333333E+00  -3.333333E+00  -3.333333E+00  -3.333333E+00  -3.333333E+00
  -3.333333E+00  -3.333333E+00  -3.333333E+00  -3.333333E+00  -3.333333E+00  -3.333333E+00  -3.333333E+00  -3.333333E+00  -3.333333E+00  -3.333333E+00  -3.333333E+00  -3.333333E+00  -3.333333E+00  -3.333333E+00  -3.333333E+00  -3.333333E+00  -3.333333E+00  -3.333333E+00  -3.333333E+00  -3.333333E+00  -3.333333E+00  -3.333333E+00  -3.333333E+00  -3.333333E+00  -3.333333E+00