pcf
* control data
             restart          estimation
      3517      1230         4         9         6         0
         4         2              single               point         1         0         0          noobsreref
   2.000000E+01  -3.000000E+00   3.000000E-01   1.000000E-02        -7       999          lamforgive        noderforgive
   1.000000E+01   1.000000E+01   1.000000E-03         0         0
   1.000000E-01         1   1.100000E+00               noaui          nosenreuse        noboundscale
         0   1.000000E-02         3         3   1.000000E-02         3   0.000000E+00         1  -1.000000E+00
         0         0         0         0             jcosave          verboserec          jcosaveitn          reisaveitn          parsaveitn        noparsaverun
* singular value decomposition
1
3517    1.000000E-06
1 1 1
* parameter groups
pumping                 absolute              5.0000000000E+03       0.0  switch                2.0000000000E+00       parabolic             1.0000000000E-05      5.0000000000E-01       smaller              
trans                   relative              1.0000000000E-02       0.0  switch                2.0000000000E+00       parabolic             1.0000000000E-05      5.0000000000E-01       smaller              
external                absolute              5.0000000000E+03       0.0  switch                2.0000000000E+00       parabolic             1.0000000000E-05      5.0000000000E-01       smaller              
sfr_seg                 relative              1.0000000000E-02       0.0  switch                2.0000000000E+00       parabolic             1.0000000000E-05      5.0000000000E-01       smaller
* parameter data
i01j00_fl              none                   relative              0.0000000000E+00      0.0000000000E+00      5.0000000000E+04       pumping               -1.0000000000E+00     0.0000000000E+00      1          
i01j00_sm              none                   relative              0.0000000000E+00      0.0000000000E+00      5.0000000000E+04       pumping               -1.0000000000E+00     0.0000000000E+00      1          
i01j00_sp              none                   relative              0.0000000000E+00      0.0000000000E+00      5.0000000000E+04       pumping               -1.0000000000E+00     0.0000000000E+00      1          
i01j00_wn              none                   relative              0.0000000000E+00      0.0000000000E+00      5.0000000000E+04       pumping               -1.0000000000E+00     0.0000000000E+00      1          
i01j01_fl              none                   relative              0.0000000000E+00      0.0000000000E+00      5.0000000000E+04       pumping               -1.0000000000E+00     0.0000000000E+00      1          
i01j01_sm              none                   relative              0.0000000000E+00      0.0000000000E+00      5.0000000000E+04       pumping               -1.0000000000E+00     0.0000000000E+00      1          
i01j01_sp              none                   relative              0.0000000000E+00      0.0000000000E+00      5.0000000000E+04       pumping               -1.0000000000E+00     0.0000000000E+00      1          
i01j01_wn              none                   relative              0.0000000000E+00      0.0000000000E+00      5.0000000000E+04       pumping               -1.0000000000E+00     0.0000000000E+00      1          
i01j02_fl              none                   relative              0.0000000000E+00      0.0000000000E+00      5.0000000000E+04       pumping               -1.0000000000E+00     0.0000000000E+00      1          
i01j02_sm              none                   relative              0.0000000000E+00      0.0000000000E+00      5.0000000000E+04       pumping               -1.0000000000E+00     0.0000000000E+00      1          
i01j02_sp              none                   relative              0.0000000000E+00      0.0000000000E+00      5.0000000000E+04       pumping               -1.0000000000E+00     0.0000000000E+00      1          
i01j02_wn              none                   relative              0.0000000000E+00      0.0000000000E+00      5.0000000000E+04       pumping               -1.0000000000E+00     0.0000000000E+00      1          
i01j03_fl              none                   relative              0.0000000000E+00      0.0000000000E+00      5.0000000000E+04       pumping               -1.0000000000E+00     0.0000000000E+00      1          
i01j03_sm              none                   relative              0.0000000000E+00      0.0000000000E+00      5.0000000000E+04       pumping               -1.0000000000E+00     0.0000000000E+00      1          
i01j03_sp              none                   relative              0.0000000000E+00      0.0000000000E+00      5.0000000000E+04       pumping               -1.0000000000E+00     0.0000000000E+00      1          
i01j03_wn              none                   relative              0.0000000000E+00      0.0000000000E+00      5.0000000000E+04       pumping               -1.0000000000E+00     0.0000000000E+00      1          
i01j04_fl              none                   relative              0.0000000000E+00      0.0000000000E+00      5.0000000000E+04       pumping               -1.0000000000E+00     0.0000000000E+00      1          
i01j04_sm              none                   relative              0.0000000000E+00      0.0000000000E+00      5.0000000000E+04       pumping               -1.0000000000E+00     0.0000000000E+00      1          
i01j04_sp              none                   relative              0.0000000000E+00      0.0000000000E+00      5.0000000000E+04       pumping               -1.0000000000E+00     0.0000000000E+00      1          
i01j04_wn              none                   relative              0.0000000000E+00      0.0000000000E+00      5.0000000000E+04       pumping               -1.0000000000E+00     0.0000000000E+00      1          
i01j05_fl              none                   relative              0.0000000000E+00      0.0000000000E+00      5.0000000000E+04       pumping               -1.0000000000E+00     0.0000000000E+00      1          
i01j05_sm              none                   relative              0.0000000000E+00      0.0000000000E+00      5.0000000000E+04       pumping               -1.0000000000E+00     0.0000000000E+00      1          
i01j05_sp              none                   relative              0.0000000000E+00      0.0000000000E+00      5.0000000000E+04       pumping               -1.0000000000E+00     0.0000000000E+00      1          
i01j05_wn              none                   relative              0.0000000000E+00      0.0000000000E+00      5.0000000000E+04       pumping               -1.0000000000E+00     0.0000000000E+00      1          
i01j06_fl              none                   relative              0.0000000000E+00      0.0000000000E+00      5.0000000000E+04       pumping               -1.0000000000E+00     0.0000000000E+00      1          
i01j06_sm              none                   relative              0.0000000000E+00      0.0000000000E+00      5.0000000000E+04       pumping               -1.0000000000E+00     0.0000000000E+00      1          
i01j06_sp              none                   relative              0.0000000000E+00      0.0000000000E+00      5.0000000000E+04       pumping               -1.0000000000E+00     0.0000000000E+00      1          
i01j06_wn              none                   relative              0.0000000000E+00      0.0000000000E+00      5.0000000000E+04       pumping               -1.0000000000E+00     0.0000000000E+00      1          
i01j07_fl              none                   relative              0.0000000000E+00      0.0000000000E+00      5.0000000000E+04       pumping               -1.0000000000E+00     0.0000000000E+00      1          
i01j07_sm              none                   relative              0.0000000000E+00      0.0000000000E+00      5.0000000000E+04       pumping               -1.0000000000E+00     0.0000000000E+00      1          
i01j07_sp              none                   relative              0.0000000000E+00      0.0000000000E+00      5.0000000000E+04       pumping               -1.0000000000E+00     0.0000000000E+00      1          
i01j07_wn              none                   relative              0.0000000000E+00      0.0000000000E+00      5.0000000000E+04       pumping               -1.0000000000E+00     0.0000000000E+00      1          
i01j08_fl              none                   relative              0.0000000000E+00      0.0000000000E+00      5.0000000000E+04       pumping               -1.0000000000E+00     0.0000000000E+00      1          
i01j08_sm              none                   relative              0.0000000000E+00      0.0000000000E+00      5.0000000000E+04       pumping               -1.0000000000E+00     0.0000000000E+00      1          
i01j08_sp              none                   relative              0.0000000000E+00      0.0000000000E+00      5.0000000000E+04       pumping               -1.0000000000E+00     0.0000000000E+00      1          
i01j08_wn              none                   relative              0.0000000000E+00      0.0000000000E+00      5.0000000000E+04       pumping               -1.0000000000E+00     0.0000000000E+00      1          
i01j09_fl              none                   relative              0.0000000000E+00      0.0000000000E+00      5.0000000000E+04       pumping               -1.0000000000E+00     0.0000000000E+00      1          
i01j09_sm              none                   relative              0.0000000000E+00      0.0000000000E+00      5.0000000000E+04       pumping               -1.0000000000E+00     0.0000000000E+00      1          
i01j09_sp              none                   relative              0.0000000000E+00      0.0000000000E+00      5.0000000000E+04       pumping               -1.0000000000E+00     0.0000000000E+00      1          
i01j09_wn              none                   relative              0.0000000000E+00      0.0000000000E+00      5.0000000000E+04       pumping               -1.0000000000E+00     0.0000000000E+00      1          
i01j10_fl              none                   relative              0.0000000000E+00      0.0000000000E+00      5.0000000000E+04       pumping               -1.0000000000E+00     0.0000000000E+00      1          
i01j10_sm              none                   relative              0.0000000000E+00      0.0000000000E+00      5.0000000000E+04       pumping               -1.0000000000E+00     0.0000000000E+00      1          
i01j10_sp              none                   relative              0.0000000000E+00      0.0000000000E+00      5.0000000000E+04       pumping               -1.0000000000E+00     0.0000000000E+00      1          
i01j10_wn              none                   relative              0.0000000000E+00      0.0000000000E+00      5.0000000000E+04       pumping               -1.0000000000E+00     0.0000000000E+00      1          
i01j11_fl              none                   relative              0.0000000000E+00      0.0000000000E+00      5.0000000000E+04       pumping               -1.0000000000E+00     0.0000000000E+00      1          
i01j11_sm              none                   relative              0.0000000000E+00      0.0000000000E+00      5.0000000000E+04       pumping               -1.0000000000E+00     0.0000000000E+00      1          
i01j11_sp              none                   relative              0.0000000000E+00      0.0000000000E+00      5.0000000000E+04       pumping               -1.0000000000E+00     0.0000000000E+00      1          
i01j11_wn              none                   relative              0.0000000000E+00      0.0000000000E+00      5.0000000000E+04       pumping               -1.0000000000E+00     0.0000000000E+00      1          
i01j12_fl              none                   relative              0.0000000000E+00      0.0000000000E+00      5.0000000000E+04       pumping               -1.0000000000E+00     0.0000000000E+00      1          
i01j12_sm              none                   relative              0.0000000000E+00      0.0000000000E+00      5.0000000000E+04       pumping               -1.0000000000E+00     0.0000000000E+00      1          
i01j12_sp              none                   relative              0.0000000000E+00      0.0000000000E+00      5.0000000000E+04       pumping               -1.0000000000E+00     0.0000000000E+00      1          
i01j12_wn              none                   relative              0.0000000000E+00      0.0000000000E+00      5.0000000000E+04       pumping               -1.0000000000E+00     0.0000000000E+00      1          
i01j13_fl              none                   relative              0.0000000000E+00      0.0000000000E+00      5.0000000000E+04       pumping               -1.0000000000E+00     0.0000000000E+00      1          
i01j13_sm              none                   relative              0.0000000000E+00      0.0000000000E+00      5.0000000000E+04       pumping               -1.0000000000E+00     0.0000000000E+00      1          
i01j13_sp              none                   relative              0.0000000000E+00      0.0000000000E+00      5.0000000000E+04       pumping               -1.0000000000E+00     0.0000000000E+00      1          
i01j13_wn              none                   relative              0.0000000000E+00      0.0000000000E+00      5.0000000000E+04       pumping               -1.0000000000E+00     0.0000000000E+00      1          
i01j14_fl              none                   relative              0.0000000000E+00      0.0000000000E+00      5.0000000000E+04       pumping               -1.0000000000E+00     0.0000000000E+00      1          
i01j14_sm              none                   relative              0.0000000000E+00      0.0000000000E+00      5.0000000000E+04       pumping               -1.0000000000E+00     0.0000000000E+00      1          
i01j14_sp              none                   relative              0.0000000000E+00      0.0000000000E+00      5.0000000000E+04       pumping               -1.0000000000E+00     0.0000000000E+00      1          
i01j14_wn              none                   relative              0.0000000000E+00      0.0000000000E+00      5.0000000000E+04       pumping               -1.0000000000E+00     0.0000000000E+00      1          
i01j15_fl              none                   relative              0.0000000000E+00      0.0000000000E+00      5.0000000000E+04       pumping               -1.0000000000E+00     0.0000000000E+00      1          
i01j15_sm              none                   relative              0.0000000000E+00      0.0000000000E+00      5.0000000000E+04       pumping               -1.0000000000E+00     0.0000000000E+00      1          
i01j15_sp              none                   relative              0.0000000000E+00      0.0000000000E+00      5.0000000000E+04       pumping               -1.0000000000E+00     0.0000000000E+00      1          
i01j15_wn              none                   relative              0.0000000000E+00      0.0000000000E+00      5.0000000000E+04       pumping               -1.0000000000E+00     0.0000000000E+00      1          
i01j16_fl              none                   relative              0.0000000000E+00      0.0000000000E+00      5.0000000000E+04       pumping               -1.0000000000E+00     0.0000000000E+00      1          
i01j16_sm              none                   relative              0.0000000000E+00      0.0000000000E+00      5.0000000000E+04       pumping               -1.0000000000E+00     0.0000000000E+00      1          
i01j16_sp              none                   relative              0.0000000000E+00      0.0000000000E+00      5.0000000000E+04       pumping               -1.0000000000E+00     0.0000000000E+00      1          
i01j16_wn              none                   relative              0.0000000000E+00      0.0000000000E+00      5.0000000000E+04       pumping               -1.0000000000E+00     0.0000000000E+00      1          
i01j17_fl              none                   relative              0.0000000000E+00      0.0000000000E+00      5.0000000000E+04       pumping               -1.0000000000E+00     0.0000000000E+00      1          
i01j17_sm              none                   relative              0.0000000000E+00      0.0000000000E+00      5.0000000000E+04       pumping               -1.0000000000E+00     0.0000000000E+00      1          
i01j17_sp              none                   relative              0.0000000000E+00      0.0000000000E+00      5.0000000000E+04       pumping               -1.0000000000E+00     0.0000000000E+00      1          
i01j17_wn              none                   relative              0.0000000000E+00      0.0000000000E+00      5.0000000000E+04       pumping               -1.0000000000E+00     0.0000000000E+00      1          
i01j18_fl              none                   relative              0.0000000000E+00      0.0000000000E+00      5.0000000000E+04       pumping               -1.0000000000E+00     0.0000000000E+00      1          
i01j18_sm              none                   relative              0.0000000000E+00      0.0000000000E+00      5.0000000000E+04       pumping               -1.0000000000E+00     0.0000000000E+00      1          
i01j18_sp              none                   relative              0.0000000000E+00      0.0000000000E+00      5.0000000000E+04       pumping               -1.0000000000E+00     0.0000000000E+00      1          
i01j18_wn              none                   relative              0.0000000000E+00      0.0000000000E+00      5.0000000000E+04       pumping               -1.0000000000E+00     0.0000000000E+00      1          
i01j19_fl              none                   relative              0.0000000000E+00      0.0000000000E+00      5.0000000000E+04       pumping               -1.0000000000E+00     0.0000000000E+00      1          
i01j19_sm              none                   relative              0.0000000000E+00      0.0000000000E+00      5.0000000000E+04       pumping               -1.0000000000E+00     0.0000000000E+00      1          
i01j19_sp              none                   relative              0.0000000000E+00      0.0000000000E+00      5.0000000000E+04       pumping               -1.0000000000E+00     0.0000000000E+00      1          
i01j19_wn              none                   relative              0.0000000000E+00      0.0000000000E+00      5.0000000000E+04       pumping               -1.0000000000E+00     0.0000000000E+00      1          
i01j20_fl              none                   relative              0.0000000000E+00      0.0000000000E+00      5.0000000000E+04       pumping               -1.0000000000E+00     0.0000000000E+00      1          
i01j20_sm              none                   relative              0.0000000000E+00      0.0000000000E+00      5.0000000000E+04       pumping               -1.0000000000E+00     0.0000000000E+00      1          
i01j20_sp              none                   relative              0.0000000000E+00      0.0000000000E+00      5.0000000000E+04       pumping               -1.0000000000E+00     0.0000000000E+00      1          
i01j20_wn              none                   relative              0.0000000000E+00      0.0000000000E+00      5.0000000000E+04       pumping               -1.0000000000E+00     0.0000000000E+00      1          
i01j21_fl              none                   relative              0.0000000000E+00      0.0000000000E+00      5.0000000000E+04       pumping               -1.0000000000E+00     0.0000000000E+00      1          
i01j21_sm              none                   relative              0.0000000000E+00      0.0000000000E+00      5.0000000000E+04       pumping               -1.0000000000E+00     0.0000000000E+00      1          
i01j21_sp              none                   relative              0.0000000000E+00      0.0000000000E+00      5.0000000000E+04       pumping               -1.0000000000E+00     0.0000000000E+00      1          
i01j21_wn              none                   relative              0.0000000000E+00      0.0000000000E+00      5.0000000000E+04       pumping               -1.0000000000E+00     0.0000000000E+00      1          
i01j22_fl              none                   relative              0.0000000000E+00      0.0000000000E+00      5.0000000000E+04       pumping               -1.0000000000E+00     0.0000000000E+00      1          
i01j22_sm              none                   relative              0.0000000000E+00      0.0000000000E+00      5.0000000000E+04       pumping               -1.0000000000E+00     0.0000000000E+00      1          
i01j22_sp              none                   relative              0.0000000000E+00      0.0000000000E+00      5.0000000000E+04       pumping               -1.0000000000E+00     0.0000000000E+00      1          
i01j22_wn              none                   relative              0.0000000000E+00      0.0000000000E+00      5.0000000000E+04       pumping               -1.0000000000E+00     0.0000000000E+00      1          
i01j23_fl              none                   relative              0.0000000000E+00      0.0000000000E+00      5.0000000000E+04       pumping               -1.0000000000E+00     0.0000000000E+00      1          
i01j23_sm              none                   relative              0.0000000000E+00      0.0000000000E+00      5.0000000000E+04       pumping               -1.0000000000E+00     0.0000000000E+00      1          
i01j23_sp              none                   relative              0.0000000000E+00      0.0000000000E+00      5.0000000000E+04       pumping               -1.0000000000E+00     0.0000000000E+00      1          
i01j23_wn              none                   relative              0.0000000000E+00      0.0000000000E+00      5.0000000000E+04       pumping               -1.0000000000E+00     0.0000000000E+00      1          
i01j24_fl              none                   relative              0.0000000000E+00      0.0000000000E+00      5.0000000000E+04       pumping               -1.0000000000E+00     0.0000000000E+00      1          
i01j24_sm              none                   relative              0.0000000000E+00      0.0000000000E+00      5.0000000000E+04       pumping               -1.0000000000E+00     0.0000000000E+00      1          
i01j24_sp              none                   relative              0.0000000000E+00      0.0000000000E+00      5.0000000000E+04       pumping               -1.0000000000E+00     0.0000000000E+00      1          
i01j24_wn              none                   relative              0.0000000000E+00      0.0000000000E+00      5.0000000000E+04       pumping               -1.0000000000E+00     0.0000000000E+00      1          
i01j25_fl              none                   relative              0.0000000000E+00      0.0000000000E+00      5.0000000000E+04       pumping               -1.0000000000E+00     0.0000000000E+00      1          
i01j25_sm              none                   relative              0.0000000000E+00      0.0000000000E+00      5.0000000000E+04       pumping               -1.0000000000E+00     0.0000000000E+00      1          
i01j25_sp              none                   relative              0.0000000000E+00      0.0000000000E+00      5.0000000000E+04       pumping               -1.0000000000E+00     0.0000000000E+00      1          
i01j25_wn              none                   relative              0.0000000000E+00      0.0000000000E+00      5.0000000000E+04       pumping               -1.0000000000E+00     0.0000000000E+00      1          
i01j26_fl              none                   relative              0.0000000000E+00      0.0000000000E+00      5.0000000000E+04       pumping               -1.0000000000E+00     0.0000000000E+00      1          
i01j26_sm              none                   relative              0.0000000000E+00      0.0000000000E+00      5.0000000000E+04       pumping               -1.0000000000E+00     0.0000000000E+00      1          
i01j26_sp              none                   relative              0.0000000000E+00      0.0000000000E+00      5.0000000000E+04       pumping               -1.0000000000E+00     0.0000000000E+00      1          
i01j26_wn              none                   relative              0.0000000000E+00      0.0000000000E+00      5.0000000000E+04       pumping               -1.0000000000E+00     0.0000000000E+00      1          
i01j27_fl              none                   relative              0.0000000000E+00      0.0000000000E+00      5.0000000000E+04       pumping               -1.0000000000E+00     0.0000000000E+00      1          
i01j27_sm              none                   relative              0.0000000000E+00      0.0000000000E+00      5.0000000000E+04       pumping               -1.0000000000E+00     0.0000000000E+00      1          
i01j27_sp              none                   relative              0.0000000000E+00      0.0000000000E+00      5.0000000000E+04       pumping               -1.0000000000E+00     0.0000000000E+00      1          
i01j27_wn              none                   relative              0.0000000000E+00      0.0000000000E+00      5.0000000000E+04       pumping               -1.0000000000E+00     0.0000000000E+00      1          
i01j28_fl              none                   relative              0.0000000000E+00      0.0000000000E+00      5.0000000000E+04       pumping               -1.0000000000E+00     0.0000000000E+00      1          
i01j28_sm              none                   relative              0.0000000000E+00      0.0000000000E+00      5.0000000000E+04       pumping               -1.0000000000E+00     0.0000000000E+00      1          
i01j28_sp              none                   relative              0.0000000000E+00      0.0000000000E+00      5.0000000000E+04       pumping               -1.0000000000E+00     0.0000000000E+00      1          
i01j28_wn              none                   relative              0.0000000000E+00      0.0000000000E+00      5.0000000000E+04       pumping               -1.0000000000E+00     0.0000000000E+00      1          
i01j29_fl              none                   relative              0.0000000000E+00      0.0000000000E+00      5.0000000000E+04       pumping               -1.0000000000E+00     0.0000000000E+00      1          
i01j29_sm              none                   relative              0.0000000000E+00      0.0000000000E+00      5.0000000000E+04       pumping               -1.0000000000E+00     0.0000000000E+00      1          
i01j29_sp              none                   relative              0.0000000000E+00      0.0000000000E+00      5.0000000000E+04       pumping               -1.0000000000E+00     0.0000000000E+00      1          
i01j29_wn              none                   relative              0.0000000000E+00      0.0000000000E+00      5.0000000000E+04       pumping               -1.0000000000E+00     0.0000000000E+00      1          
i02j00_fl              none                   relative              0.0000000000E+00      0.0000000000E+00      5.0000000000E+04       pumping               -1.0000000000E+00     0.0000000000E+00      1          
i02j00_sm              none                   relative              0.0000000000E+00      0.0000000000E+00      5.0000000000E+04       pumping               -1.0000000000E+00     0.0000000000E+00      1          
i02j00_sp              none                   relative              0.0000000000E+00      0.0000000000E+00      5.0000000000E+04       pumping               -1.0000000000E+00     0.0000000000E+00      1          
i02j00_wn              none                   relative              0.0000000000E+00      0.0000000000E+00      5.0000000000E+04       pumping               -1.0000000000E+00     0.0000000000E+00      1          
i02j01_fl              none                   relative              0.0000000000E+00      0.0000000000E+00      5.0000000000E+04       pumping               -1.0000000000E+00     0.0000000000E+00      1          
i02j01_sm              none                   relative              0.0000000000E+00      0.0000000000E+00      5.0000000000E+04       pumping               -1.0000000000E+00     0.0000000000E+00      1          
i02j01_sp              none                   relative              0.0000000000E+00      0.0000000000E+00      5.0000000000E+04       pumping               -1.0000000000E+00     0.0000000000E+00      1          
i02j01_wn              none                   relative              0.0000000000E+00      0.0000000000E+00      5.0000000000E+04       pumping               -1.0000000000E+00     0.0000000000E+00      1          
i02j02_fl              none                   relative              0.0000000000E+00      0.0000000000E+00      5.0000000000E+04       pumping               -1.0000000000E+00     0.0000000000E+00      1          
i02j02_sm              none                   relative              0.0000000000E+00      0.0000000000E+00      5.0000000000E+04       pumping               -1.0000000000E+00     0.0000000000E+00      1          
i02j02_sp              none                   relative              0.0000000000E+00      0.0000000000E+00      5.0000000000E+04       pumping               -1.0000000000E+00     0.0000000000E+00      1          
i02j02_wn              none                   relative              0.0000000000E+00      0.0000000000E+00      5.0000000000E+04       pumping               -1.0000000000E+00     0.0000000000E+00      1          