# RCH package for  MODFLOW-2005, generated by Flopy.
         3         0
         1        -1 # Stress period 1
OPEN/CLOSE                    ./rech_0.ref               1     (FREE) -1 rech_1                        
         1        -1 # Stress period 2
OPEN/CLOSE                    ./rech_1.ref               1     (FREE) -1 rech_2                        
         1        -1 # Stress period 3
OPEN/CLOSE                    ./rech_2.ref               1     (FREE) -1 rech_3                        
