# Well file for MODFLOW, generated by Flopy.
         6         0
         6         0 # stress period 0
         1         9        16  96.55250134  0.000000
         1        11        13  96.79049665  0.000000
         1        20        14  98.24875445  0.000000
         1        26        10  95.84202852  0.000000
         1        29         6  104.7251519  0.000000
         1        34        12  99.08333522  0.000000
         6         0 # stress period 1
         1         9        16  114.9635392  0.000000
         1        11        13  81.20074417  0.000000
         1        20        14  120.3937453  0.000000
         1        26        10  80.61825297  0.000000
         1        29         6  76.50637526  0.000000
         1        34        12  97.88530602  0.000000
         6         0 # stress period 2
         1         9        16  114.9635392  0.000000
         1        11        13  81.20074417  0.000000
         1        20        14  120.3937453  0.000000
         1        26        10  80.61825297  0.000000
         1        29         6  76.50637526  0.000000
         1        34        12  97.88530602  0.000000
