# RIV for MODFLOW, generated by Flopy.
        40         0
        40         0 # stress period 0
         1         1        15 20.100000 12256.049 20.000000  0.000000
         1         2        15 19.870001 1938.8787 19.750000  0.000000
         1         3        15 19.650000 3042.4576 19.500000  0.000000
         1         4        15 19.420000 3623.7260 19.250000  0.000000
         1         5        15 19.190001 8717.5202 19.000000  0.000000
         1         6        15 18.969999 6077.3909 18.750000  0.000000
         1         7        15 18.740000 757.02866 18.500000  0.000000
         1         8        15 18.510000 1858.7766 18.250000  0.000000
         1         9        15 18.280001 3731.2834 18.000000  0.000000
         1        10        15 19.059999 8559.5599 17.750000  0.000000
         1        11        15 17.830000 5576.6895 17.500000  0.000000
         1        12        15 17.600000 7363.2257 17.250000  0.000000
         1        13        15 17.379999 14742.350 17.000000  0.000000
         1        14        15 17.150000 2045.6977 16.750000  0.000000
         1        15        15 16.920000 2812.9908 16.500000  0.000000
         1        16        15 16.700001 45000.000 16.250000  0.000000
         1        17        15 16.469999 4213.9181 16.000000  0.000000
         1        18        15 16.240000 20644.884 15.750000  0.000000
         1        19        15 16.020000 1182.5869 15.500000  0.000000
         1        20        15 15.790000 2619.6532 15.250000  0.000000
         1        21        15 15.560000 3698.1220 15.000000  0.000000
         1        22        15 15.330000 2027.9942 14.750000  0.000000
         1        23        15 15.110000 4680.5822 14.500000  0.000000
         1        24        15 14.880000 2611.5838 14.250000  0.000000
         1        25        15 14.650000 8067.4075 14.000000  0.000000
         1        26        15 14.430000 7016.7413 13.750000  0.000000
         1        27        15 14.200000 3711.3905 13.500000  0.000000
         1        28        15 13.970000 2379.7945 13.250000  0.000000
         1        29        15 13.750000 5268.5620 13.000000  0.000000
         1        30        15 13.520000 3741.8506 12.750000  0.000000
         1        31        15 13.290000 2089.4052 12.500000  0.000000
         1        32        15 13.070000 14097.544 12.250000  0.000000
         1        33        15 12.840000 7298.6551 12.000000  0.000000
         1        34        15 12.610000 2826.8951 11.750000  0.000000
         1        35        15 12.380000 1587.3013 11.500000  0.000000
         1        36        15 12.160000 4315.1576 11.250000  0.000000
         1        37        15 11.930000 10817.893 11.000000  0.000000
         1        38        15 11.700000 12655.150 10.750000  0.000000
         1        39        15 11.480000 1733.7981 10.500000  0.000000
         1        40        15 11.250000 6177.6944 10.250000  0.000000
        -1         0 # stress period 1
        -1         0 # stress period 2
