# RIV for MODFLOW, generated by Flopy.
        40         0
        40         0 # stress period 0
         1         1        15 20.100000 645.19664 20.000000  0.000000
         1         2        15 19.870001 5559.7962 19.750000  0.000000
         1         3        15 19.650000 8354.3706 19.500000  0.000000
         1         4        15 19.420000 2648.3281 19.250000  0.000000
         1         5        15 19.190001 2454.2620 19.000000  0.000000
         1         6        15 18.969999 3738.1564 18.750000  0.000000
         1         7        15 18.740000 6161.7518 18.500000  0.000000
         1         8        15 18.510000 4072.4143 18.250000  0.000000
         1         9        15 18.280001 11856.450 18.000000  0.000000
         1        10        15 19.059999 2159.6741 17.750000  0.000000
         1        11        15 17.830000 1615.2796 17.500000  0.000000
         1        12        15 17.600000 3034.7350 17.250000  0.000000
         1        13        15 17.379999 1487.7679 17.000000  0.000000
         1        14        15 17.150000 5967.9281 16.750000  0.000000
         1        15        15 16.920000 1003.6109 16.500000  0.000000
         1        16        15 16.700001 10871.418 16.250000  0.000000
         1        17        15 16.469999 3856.8008 16.000000  0.000000
         1        18        15 16.240000 3789.5234 15.750000  0.000000
         1        19        15 16.020000 2444.6791 15.500000  0.000000
         1        20        15 15.790000 4217.0241 15.250000  0.000000
         1        21        15 15.560000 2693.5441 15.000000  0.000000
         1        22        15 15.330000 6266.7444 14.750000  0.000000
         1        23        15 15.110000 4895.3533 14.500000  0.000000
         1        24        15 14.880000 11924.127 14.250000  0.000000
         1        25        15 14.650000 20289.594 14.000000  0.000000
         1        26        15 14.430000 4247.7665 13.750000  0.000000
         1        27        15 14.200000 1447.7738 13.500000  0.000000
         1        28        15 13.970000 7392.0951 13.250000  0.000000
         1        29        15 13.750000 4112.3386 13.000000  0.000000
         1        30        15 13.520000 29406.029 12.750000  0.000000
         1        31        15 13.290000 6152.1013 12.500000  0.000000
         1        32        15 13.070000 4120.3323 12.250000  0.000000
         1        33        15 12.840000 17523.228 12.000000  0.000000
         1        34        15 12.610000 4876.4337 11.750000  0.000000
         1        35        15 12.380000 3828.6792 11.500000  0.000000
         1        36        15 12.160000 4290.0148 11.250000  0.000000
         1        37        15 11.930000 2264.8234 11.000000  0.000000
         1        38        15 11.700000 4889.7569 10.750000  0.000000
         1        39        15 11.480000 6641.6317 10.500000  0.000000
         1        40        15 11.250000 1777.2748 10.250000  0.000000
        -1         0 # stress period 1
        -1         0 # stress period 2
