# RIV for MODFLOW, generated by Flopy.
        40         0
        40         0 # stress period 0
         1         1        15 20.100000 11975.764 20.000000  0.000000
         1         2        15 19.870001 1753.2962 19.750000  0.000000
         1         3        15 19.650000 2767.0146 19.500000  0.000000
         1         4        15 19.420000 3076.3149 19.250000  0.000000
         1         5        15 19.190001 7429.8989 19.000000  0.000000
         1         6        15 18.969999 6040.9121 18.750000  0.000000
         1         7        15 18.740000 769.23436 18.500000  0.000000
         1         8        15 18.510000 1481.2251 18.250000  0.000000
         1         9        15 18.280001 4253.8469 18.000000  0.000000
         1        10        15 19.059999 9489.4287 17.750000  0.000000
         1        11        15 17.830000 5174.4474 17.500000  0.000000
         1        12        15 17.600000 7340.6177 17.250000  0.000000
         1        13        15 17.379999 16442.155 17.000000  0.000000
         1        14        15 17.150000 2362.8206 16.750000  0.000000
         1        15        15 16.920000 3175.1672 16.500000  0.000000
         1        16        15 16.700001 45000.000 16.250000  0.000000
         1        17        15 16.469999 4275.9597 16.000000  0.000000
         1        18        15 16.240000 22104.896 15.750000  0.000000
         1        19        15 16.020000 953.61057 15.500000  0.000000
         1        20        15 15.790000 2664.6021 15.250000  0.000000
         1        21        15 15.560000 4297.0069 15.000000  0.000000
         1        22        15 15.330000 1613.8466 14.750000  0.000000
         1        23        15 15.110000 4539.6278 14.500000  0.000000
         1        24        15 14.880000 2232.7500 14.250000  0.000000
         1        25        15 14.650000 6864.0334 14.000000  0.000000
         1        26        15 14.430000 7804.4949 13.750000  0.000000
         1        27        15 14.200000 3571.8776 13.500000  0.000000
         1        28        15 13.970000 2546.7348 13.250000  0.000000
         1        29        15 13.750000 5460.3978 13.000000  0.000000
         1        30        15 13.520000 3284.4334 12.750000  0.000000
         1        31        15 13.290000 2492.1082 12.500000  0.000000
         1        32        15 13.070000 13411.246 12.250000  0.000000
         1        33        15 12.840000 9373.7518 12.000000  0.000000
         1        34        15 12.610000 3170.5934 11.750000  0.000000
         1        35        15 12.380000 1696.7101 11.500000  0.000000
         1        36        15 12.160000 3943.2824 11.250000  0.000000
         1        37        15 11.930000 11229.638 11.000000  0.000000
         1        38        15 11.700000 15986.770 10.750000  0.000000
         1        39        15 11.480000 1770.5841 10.500000  0.000000
         1        40        15 11.250000 7424.2442 10.250000  0.000000
        -1         0 # stress period 1
        -1         0 # stress period 2
