# RIV for MODFLOW, generated by Flopy.
        40         0
        40         0 # stress period 0
         1         1        15 20.100000 12556.764 20.000000  0.000000
         1         2        15 19.870001 1965.2527 19.750000  0.000000
         1         3        15 19.650000 3187.1134 19.500000  0.000000
         1         4        15 19.420000 3740.2929 19.250000  0.000000
         1         5        15 19.190001 8528.4482 19.000000  0.000000
         1         6        15 18.969999 6009.8446 18.750000  0.000000
         1         7        15 18.740000 738.87118 18.500000  0.000000
         1         8        15 18.510000 1962.5735 18.250000  0.000000
         1         9        15 18.280001 3598.7553 18.000000  0.000000
         1        10        15 19.059999 8421.4682 17.750000  0.000000
         1        11        15 17.830000 5719.3639 17.500000  0.000000
         1        12        15 17.600000 7687.5411 17.250000  0.000000
         1        13        15 17.379999 15422.052 17.000000  0.000000
         1        14        15 17.150000 2042.6373 16.750000  0.000000
         1        15        15 16.920000 3080.1209 16.500000  0.000000
         1        16        15 16.700001 45000.000 16.250000  0.000000
         1        17        15 16.469999 4060.8481 16.000000  0.000000
         1        18        15 16.240000 20833.242 15.750000  0.000000
         1        19        15 16.020000 1145.3427 15.500000  0.000000
         1        20        15 15.790000 2584.3974 15.250000  0.000000
         1        21        15 15.560000 3934.4141 15.000000  0.000000
         1        22        15 15.330000 2065.6567 14.750000  0.000000
         1        23        15 15.110000 4458.1119 14.500000  0.000000
         1        24        15 14.880000 2749.8199 14.250000  0.000000
         1        25        15 14.650000 8215.1478 14.000000  0.000000
         1        26        15 14.430000 7070.0290 13.750000  0.000000
         1        27        15 14.200000 3535.6978 13.500000  0.000000
         1        28        15 13.970000 2295.5113 13.250000  0.000000
         1        29        15 13.750000 5455.1897 13.000000  0.000000
         1        30        15 13.520000 3767.8816 12.750000  0.000000
         1        31        15 13.290000 2164.7372 12.500000  0.000000
         1        32        15 13.070000 14086.736 12.250000  0.000000
         1        33        15 12.840000 6966.9786 12.000000  0.000000
         1        34        15 12.610000 2732.4370 11.750000  0.000000
         1        35        15 12.380000 1538.6713 11.500000  0.000000
         1        36        15 12.160000 4192.6948 11.250000  0.000000
         1        37        15 11.930000 10737.632 11.000000  0.000000
         1        38        15 11.700000 12656.712 10.750000  0.000000
         1        39        15 11.480000 1780.5043 10.500000  0.000000
         1        40        15 11.250000 6208.8615 10.250000  0.000000
        -1         0 # stress period 1
        -1         0 # stress period 2
