# RIV for MODFLOW, generated by Flopy.
        40         0
        40         0 # stress period 0
         1         1        15 20.100000 4257.4311 20.000000  0.000000
         1         2        15 19.870001 2640.9940 19.750000  0.000000
         1         3        15 19.650000 4006.6923 19.500000  0.000000
         1         4        15 19.420000 5965.9102 19.250000  0.000000
         1         5        15 19.190001 1942.5684 19.000000  0.000000
         1         6        15 18.969999 1942.2466 18.750000  0.000000
         1         7        15 18.740000 4770.3298 18.500000  0.000000
         1         8        15 18.510000 1317.0491 18.250000  0.000000
         1         9        15 18.280001 1581.8879 18.000000  0.000000
         1        10        15 19.059999 4114.7302 17.750000  0.000000
         1        11        15 17.830000 17593.422 17.500000  0.000000
         1        12        15 17.600000 3557.2136 17.250000  0.000000
         1        13        15 17.379999 2086.0624 17.000000  0.000000
         1        14        15 17.150000 3986.7747 16.750000  0.000000
         1        15        15 16.920000 9900.2163 16.500000  0.000000
         1        16        15 16.700001 5139.4936 16.250000  0.000000
         1        17        15 16.469999 5203.1152 16.000000  0.000000
         1        18        15 16.240000 11167.876 15.750000  0.000000
         1        19        15 16.020000 8938.9302 15.500000  0.000000
         1        20        15 15.790000 1965.4471 15.250000  0.000000
         1        21        15 15.560000 1109.2483 15.000000  0.000000
         1        22        15 15.330000 3717.2300 14.750000  0.000000
         1        23        15 15.110000 2115.7612 14.500000  0.000000
         1        24        15 14.880000 4463.2645 14.250000  0.000000
         1        25        15 14.650000 6402.0724 14.000000  0.000000
         1        26        15 14.430000 4148.0564 13.750000  0.000000
         1        27        15 14.200000 2355.3219 13.500000  0.000000
         1        28        15 13.970000 2090.6209 13.250000  0.000000
         1        29        15 13.750000 4045.2333 13.000000  0.000000
         1        30        15 13.520000 23512.747 12.750000  0.000000
         1        31        15 13.290000 1467.4997 12.500000  0.000000
         1        32        15 13.070000 7133.9289 12.250000  0.000000
         1        33        15 12.840000 9449.0135 12.000000  0.000000
         1        34        15 12.610000 14809.432 11.750000  0.000000
         1        35        15 12.380000 9141.5271 11.500000  0.000000
         1        36        15 12.160000 7662.9365 11.250000  0.000000
         1        37        15 11.930000 2390.2214 11.000000  0.000000
         1        38        15 11.700000 4343.0098 10.750000  0.000000
         1        39        15 11.480000 2557.8292 10.500000  0.000000
         1        40        15 11.250000 6126.5235 10.250000  0.000000
        -1         0 # stress period 1
        -1         0 # stress period 2
