# RIV for MODFLOW, generated by Flopy.
        40         0
        40         0 # stress period 0
         1         1        15 20.100000 4704.8458 20.000000  0.000000
         1         2        15 19.870001 3500.4208 19.750000  0.000000
         1         3        15 19.650000 3936.6496 19.500000  0.000000
         1         4        15 19.420000 5273.2245 19.250000  0.000000
         1         5        15 19.190001 5104.6985 19.000000  0.000000
         1         6        15 18.969999 4602.9001 18.750000  0.000000
         1         7        15 18.740000 511.90057 18.500000  0.000000
         1         8        15 18.510000 680.09128 18.250000  0.000000
         1         9        15 18.280001 7737.3269 18.000000  0.000000
         1        10        15 19.059999 6224.1766 17.750000  0.000000
         1        11        15 17.830000 7141.7739 17.500000  0.000000
         1        12        15 17.600000 11306.147 17.250000  0.000000
         1        13        15 17.379999 2318.6681 17.000000  0.000000
         1        14        15 17.150000 919.45945 16.750000  0.000000
         1        15        15 16.920000 5218.5801 16.500000  0.000000
         1        16        15 16.700001 18813.937 16.250000  0.000000
         1        17        15 16.469999 24599.790 16.000000  0.000000
         1        18        15 16.240000 33284.856 15.750000  0.000000
         1        19        15 16.020000 2811.8613 15.500000  0.000000
         1        20        15 15.790000 27058.163 15.250000  0.000000
         1        21        15 15.560000 3396.5757 15.000000  0.000000
         1        22        15 15.330000 6814.9401 14.750000  0.000000
         1        23        15 15.110000 906.94125 14.500000  0.000000
         1        24        15 14.880000 9602.0992 14.250000  0.000000
         1        25        15 14.650000 4863.6945 14.000000  0.000000
         1        26        15 14.430000 10437.743 13.750000  0.000000
         1        27        15 14.200000 5907.5281 13.500000  0.000000
         1        28        15 13.970000 8146.6671 13.250000  0.000000
         1        29        15 13.750000 8882.1629 13.000000  0.000000
         1        30        15 13.520000 3698.7490 12.750000  0.000000
         1        31        15 13.290000 17094.232 12.500000  0.000000
         1        32        15 13.070000 3830.4923 12.250000  0.000000
         1        33        15 12.840000 7630.0352 12.000000  0.000000
         1        34        15 12.610000 1311.8402 11.750000  0.000000
         1        35        15 12.380000 1615.8972 11.500000  0.000000
         1        36        15 12.160000 1866.7040 11.250000  0.000000
         1        37        15 11.930000 25556.737 11.000000  0.000000
         1        38        15 11.700000 2639.6837 10.750000  0.000000
         1        39        15 11.480000 3134.8030 10.500000  0.000000
         1        40        15 11.250000 4749.3590 10.250000  0.000000
        -1         0 # stress period 1
        -1         0 # stress period 2
