# RIV for MODFLOW, generated by Flopy.
        40         0
        40         0 # stress period 0
         1         1        15 20.100000 12353.692 20.000000  0.000000
         1         2        15 19.870001 1967.7135 19.750000  0.000000
         1         3        15 19.650000 3244.5307 19.500000  0.000000
         1         4        15 19.420000 3616.7547 19.250000  0.000000
         1         5        15 19.190001 8416.6474 19.000000  0.000000
         1         6        15 18.969999 5785.3924 18.750000  0.000000
         1         7        15 18.740000 755.80917 18.500000  0.000000
         1         8        15 18.510000 1932.0308 18.250000  0.000000
         1         9        15 18.280001 3606.5327 18.000000  0.000000
         1        10        15 19.059999 8421.6690 17.750000  0.000000
         1        11        15 17.830000 5633.6589 17.500000  0.000000
         1        12        15 17.600000 7632.9499 17.250000  0.000000
         1        13        15 17.379999 15449.768 17.000000  0.000000
         1        14        15 17.150000 2018.2297 16.750000  0.000000
         1        15        15 16.920000 3021.9035 16.500000  0.000000
         1        16        15 16.700001 45000.000 16.250000  0.000000
         1        17        15 16.469999 4112.3799 16.000000  0.000000
         1        18        15 16.240000 21435.150 15.750000  0.000000
         1        19        15 16.020000 1130.7813 15.500000  0.000000
         1        20        15 15.790000 2600.1751 15.250000  0.000000
         1        21        15 15.560000 4005.2953 15.000000  0.000000
         1        22        15 15.330000 2090.5497 14.750000  0.000000
         1        23        15 15.110000 4476.5033 14.500000  0.000000
         1        24        15 14.880000 2687.3246 14.250000  0.000000
         1        25        15 14.650000 8185.6367 14.000000  0.000000
         1        26        15 14.430000 7105.0189 13.750000  0.000000
         1        27        15 14.200000 3614.2219 13.500000  0.000000
         1        28        15 13.970000 2303.8010 13.250000  0.000000
         1        29        15 13.750000 5451.2291 13.000000  0.000000
         1        30        15 13.520000 3770.3297 12.750000  0.000000
         1        31        15 13.290000 2193.7040 12.500000  0.000000
         1        32        15 13.070000 13554.161 12.250000  0.000000
         1        33        15 12.840000 7221.5704 12.000000  0.000000
         1        34        15 12.610000 2680.5771 11.750000  0.000000
         1        35        15 12.380000 1585.7075 11.500000  0.000000
         1        36        15 12.160000 4181.7211 11.250000  0.000000
         1        37        15 11.930000 10836.580 11.000000  0.000000
         1        38        15 11.700000 12499.755 10.750000  0.000000
         1        39        15 11.480000 1788.1315 10.500000  0.000000
         1        40        15 11.250000 6370.2128 10.250000  0.000000
        -1         0 # stress period 1
        -1         0 # stress period 2
