# Well file for MODFLOW, generated by Flopy.
         6         0
         6         0 # stress period 0
         1         9        16  102.4420848  0.000000
         1        11        13  98.02156920  0.000000
         1        20        14  96.28087921  0.000000
         1        26        10  97.54779780  0.000000
         1        29         6  96.88595588  0.000000
         1        34        12  103.5996630  0.000000
         6         0 # stress period 1
         1         9        16  106.8224143  0.000000
         1        11        13  91.13144150  0.000000
         1        20        14  108.6389005  0.000000
         1        26        10  107.2040826  0.000000
         1        29         6  73.38597654  0.000000
         1        34        12  98.98657430  0.000000
         6         0 # stress period 2
         1         9        16  106.8224143  0.000000
         1        11        13  91.13144150  0.000000
         1        20        14  108.6389005  0.000000
         1        26        10  107.2040826  0.000000
         1        29         6  73.38597654  0.000000
         1        34        12  98.98657430  0.000000
