# Well file for MODFLOW, generated by Flopy.
         4         0
         4         0 # stress period 0
         1        12        11   -3443.71338        Q1
         1        16        17   -50000.0000        Q2
         1        11        22   0.0000000E+00        Q3
         1        14        25   0.0000000E+00        Q4
         4         0 # stress period 1
         1        12        11   -3443.71338        Q1
         1        16        17   -27888.8315        Q2
         1        11        22   0.0000000E+00        Q3
         1        14        25   -48667.4551        Q4
         4         0 # stress period 2
         1        12        11   -3443.71338        Q1
         1        16        17   -26910.42083        Q2
         1        11        22   0.0000000E+00        Q3
         1        14        25   0.0000000E+00        Q4
         4         0 # stress period 3
         1        12        11    -3443.71338        Q1
         1        16        17   -26942.37660        Q2
         1        11        22   0.0000000E+00        Q3
         1        14        25   -8383.163641        Q4
         4         0 # stress period 4
         1        12        11   -3443.71338        Q1
         1        16        17   -50000.0000        Q2
         1        11        22    0.0                 Q3
         1        14        25   0.0000000E+00        Q4
         4         0 # stress period 5
         1        12        11    -3443.71338        Q1
         1        16        17    -27888.8315        Q2
         1        11        22   0.0                  Q3
         1        14        25    -48667.4551        Q4
         4         0 # stress period 6
         1        12        11    -3443.71338        Q1
         1        16        17   -26910.42083        Q2
         1        11        22   0.0                  Q3
         1        14        25   0.0000000E+00        Q4
         4         0 # stress period 7
         1        12        11    -3443.71338        Q1
         1        16        17   -26942.37660        Q2
         1        11        22   0.0                  Q3
         1        14        25   -8383.163641        Q4
         4         0 # stress period 8
         1        12        11   -3443.71338        Q1
         1        16        17   -50000.0000        Q2
         1        11        22   0.0000000E+00        Q3
         1        14        25   0.0000000E+00        Q4
         4         0 # stress period 9
         1        12        11    -3443.71338        Q1
         1        16        17    -27888.8315        Q2
         1        11        22   0.0000000E+00        Q3
         1        14        25    -48667.4551        Q4
         4         0 # stress period 10
         1        12        11    -3443.71338        Q1
         1        16        17   -26910.42083        Q2
         1        11        22   0.0000000E+00        Q3
         1        14        25   0.0000000E+00        Q4
         4         0 # stress period 11
         1        12        11    -3443.71338        Q1
         1        16        17   -26942.37660        Q2
         1        11        22   0.0000000E+00        Q3
         1        14        25   -8383.163641        Q4
