# Well file for MODFLOW, generated by Flopy.
        50         0
        50         0
        1         1         1  1.000000e+00
        1         1         2  1.000000e+00
        1         1         3  1.000000e+00
        1         1         4  1.000000e+00
        1         1         5  1.000000e+00
        1         1         6  1.000000e+00
        1         1         7  1.000000e+00
        1         1         8  1.000000e+00
        1         1         9  1.000000e+00
        1         1        10  1.000000e+00
        1         1        11  1.000000e+00
        1         1        12  1.000000e+00
        1         1        13  1.000000e+00
        1         1        14  1.000000e+00
        1         1        15  1.000000e+00
        1         1        16  1.000000e+00
        1         1        17  1.000000e+00
        1         1        18  1.000000e+00
        1         1        19  1.000000e+00
        1         1        20  1.000000e+00
        1         1        21  1.000000e+00
        1         1        22  1.000000e+00
        1         1        23  1.000000e+00
        1         1        24  1.000000e+00
        1         1        25  1.000000e+00
        1         1        26  1.000000e+00
        1         1        27  1.000000e+00
        1         1        28  1.000000e+00
        1         1        29  1.000000e+00
        1         1        30  1.000000e+00
        1         1        31  1.000000e+00
        1         1        32  1.000000e+00
        1         1        33  1.000000e+00
        1         1        34  1.000000e+00
        1         1        35  1.000000e+00
        1         1        36  1.000000e+00
        1         1        37  1.000000e+00
        1         1        38  1.000000e+00
        1         1        39  1.000000e+00
        1         1        40  1.000000e+00
        1         1        41  1.000000e+00
        1         1        42  1.000000e+00
        1         1        43  1.000000e+00
        1         1        44  1.000000e+00
        1         1        45  1.000000e+00
        1         1        46  1.000000e+00
        1         1        47  1.000000e+00
        1         1        48  1.000000e+00
        1         1        49  1.000000e+00
        1         1        50  1.000000e+00
