# PCG for MODFLOW, generated by Flopy.
100 50 1 0 
1e-06 0.1 0.97 0 1 1 1.0 
