# Discretization file for MODFLOW, generated by Flopy.
         1        80        50         1         4         2
  0
OPEN/CLOSE                    ref\delr.ref               1  (50G15.6) -1  #delr                          
OPEN/CLOSE                    ref\delc.ref               1  (80G15.6) -1  #delc                          
OPEN/CLOSE               ref\model_top.ref               1  (50G15.6) -1  #model_top                     
OPEN/CLOSE            ref\botm_Layer_1.ref               1  (50G15.6) -1  #botm Layer 1                  
      1.000000             1  1.000000  SS 
