# Basic package file for MODFLOW, generated by Flopy.
 FREE
OPEN/CLOSE          ref/ibound_Layer_1.ref               1    (50I10) -1  #ibound Layer 1                
        -999.99
OPEN/CLOSE            ref/strt_Layer_1.ref               1  (50G15.6) -1  #strt Layer 1                  
