# PCG package for  MODFLOW-2005, generated by Flopy.
500 5 1 0
1e-08 1.0 0.0 0 0 0 1.0 
