# BAS6 package for  MODFLOW-2005, generated by Flopy.
 FREE
OPEN/CLOSE            .\ibound_layer_1.ref               1    (30I10) -1 ibound_layer_0                
OPEN/CLOSE            .\ibound_layer_2.ref               1    (30I10) -1 ibound_layer_1                
              0
OPEN/CLOSE              .\strt_layer_1.ref               1  (30E15.6) -1 strt_layer_0                  
OPEN/CLOSE              .\strt_layer_2.ref               1  (30E15.6) -1 strt_layer_1                  
