pcf
* control data
             restart          estimation
      2409      1260         7         2         9         0
         5         2              single               point         1         0         0          noobsreref
   2.000000E+01  -3.000000E+00   3.000000E-01   1.000000E-02        -7       999          lamforgive        noderforgive
   1.000000E+01   1.000000E+01   1.000000E-03         0         0
   1.000000E-01         1   1.100000E+00               noaui          nosenreuse        noboundscale
         4   1.000000E-02         3         3   1.000000E-02         3   0.000000E+00         1  -1.000000E+00
         0         0         0         0             jcosave          verboserec          jcosaveitn          reisaveitn          parsaveitn        noparsaverun
* singular value decomposition
         1
  10000000    1.000000E-06
1
* parameter groups
rch                     relative              1.0000000000E-02       0.0  switch                2.0000000000E+00       parabolic             1.0000000000E-05      5.0000000000E-01       smaller              
vcd                     relative              1.0000000000E-02       0.0  switch                2.0000000000E+00       parabolic             1.0000000000E-05      5.0000000000E-01       smaller              
tr2                     relative              1.0000000000E-02       0.0  switch                2.0000000000E+00       parabolic             1.0000000000E-05      5.0000000000E-01       smaller              
hy1                     relative              1.0000000000E-02       0.0  switch                2.0000000000E+00       parabolic             1.0000000000E-05      5.0000000000E-01       smaller              
extrac_dv               absolute              5.0000000000E+02       0.0  switch                2.0000000000E+00       parabolic             1.0000000000E-05      5.0000000000E-01       smaller              
inject_dv               absolute              5.0000000000E+02       0.0  switch                2.0000000000E+00       parabolic             1.0000000000E-05      5.0000000000E-01       smaller              
existing                relative              1.0000000000E-02       0.0  switch                2.0000000000E+00       parabolic             1.0000000000E-05      5.0000000000E-01       smaller
* parameter data
hy1_00_00              fixed                  factor                5.0000000000E+00      2.5000000000E+00      1.0000000000E+01       hy1                   1.0000000000E+00      0.0000000000E+00      1          
hy1_00_01              fixed                  factor                5.0000000000E+00      2.5000000000E+00      1.0000000000E+01       hy1                   1.0000000000E+00      0.0000000000E+00      1          
hy1_00_02              fixed                  factor                5.0000000000E+00      2.5000000000E+00      1.0000000000E+01       hy1                   1.0000000000E+00      0.0000000000E+00      1          
hy1_00_03              fixed                  factor                5.0000000000E+00      2.5000000000E+00      1.0000000000E+01       hy1                   1.0000000000E+00      0.0000000000E+00      1          
hy1_00_04              fixed                  factor                5.0000000000E+00      2.5000000000E+00      1.0000000000E+01       hy1                   1.0000000000E+00      0.0000000000E+00      1          
hy1_00_05              fixed                  factor                5.0000000000E+00      2.5000000000E+00      1.0000000000E+01       hy1                   1.0000000000E+00      0.0000000000E+00      1          
hy1_00_06              fixed                  factor                5.0000000000E+00      2.5000000000E+00      1.0000000000E+01       hy1                   1.0000000000E+00      0.0000000000E+00      1          
hy1_00_07              fixed                  factor                5.0000000000E+00      2.5000000000E+00      1.0000000000E+01       hy1                   1.0000000000E+00      0.0000000000E+00      1          
hy1_00_08              fixed                  factor                5.0000000000E+00      2.5000000000E+00      1.0000000000E+01       hy1                   1.0000000000E+00      0.0000000000E+00      1          
hy1_00_09              fixed                  factor                5.0000000000E+00      2.5000000000E+00      1.0000000000E+01       hy1                   1.0000000000E+00      0.0000000000E+00      1          
hy1_00_10              fixed                  factor                5.0000000000E+00      2.5000000000E+00      1.0000000000E+01       hy1                   1.0000000000E+00      0.0000000000E+00      1          
hy1_00_11              fixed                  factor                5.0000000000E+00      2.5000000000E+00      1.0000000000E+01       hy1                   1.0000000000E+00      0.0000000000E+00      1          
hy1_00_12              fixed                  factor                5.0000000000E+00      2.5000000000E+00      1.0000000000E+01       hy1                   1.0000000000E+00      0.0000000000E+00      1          
hy1_00_13              fixed                  factor                5.0000000000E+00      2.5000000000E+00      1.0000000000E+01       hy1                   1.0000000000E+00      0.0000000000E+00      1          
hy1_00_14              fixed                  factor                5.0000000000E+00      2.5000000000E+00      1.0000000000E+01       hy1                   1.0000000000E+00      0.0000000000E+00      1          
hy1_00_15              fixed                  factor                5.0000000000E+00      2.5000000000E+00      1.0000000000E+01       hy1                   1.0000000000E+00      0.0000000000E+00      1          
hy1_00_16              fixed                  factor                5.0000000000E+00      2.5000000000E+00      1.0000000000E+01       hy1                   1.0000000000E+00      0.0000000000E+00      1          
hy1_00_17              fixed                  factor                5.0000000000E+00      2.5000000000E+00      1.0000000000E+01       hy1                   1.0000000000E+00      0.0000000000E+00      1          
hy1_00_18              fixed                  factor                5.0000000000E+00      2.5000000000E+00      1.0000000000E+01       hy1                   1.0000000000E+00      0.0000000000E+00      1          
hy1_00_19              fixed                  factor                5.0000000000E+00      2.5000000000E+00      1.0000000000E+01       hy1                   1.0000000000E+00      0.0000000000E+00      1          
hy1_00_20              fixed                  factor                5.0000000000E+00      2.5000000000E+00      1.0000000000E+01       hy1                   1.0000000000E+00      0.0000000000E+00      1          
hy1_00_21              fixed                  factor                5.0000000000E+00      2.5000000000E+00      1.0000000000E+01       hy1                   1.0000000000E+00      0.0000000000E+00      1          
hy1_00_22              fixed                  factor                5.0000000000E+00      2.5000000000E+00      1.0000000000E+01       hy1                   1.0000000000E+00      0.0000000000E+00      1          
hy1_00_23              fixed                  factor                5.0000000000E+00      2.5000000000E+00      1.0000000000E+01       hy1                   1.0000000000E+00      0.0000000000E+00      1          
hy1_00_24              fixed                  factor                5.0000000000E+00      2.5000000000E+00      1.0000000000E+01       hy1                   1.0000000000E+00      0.0000000000E+00      1          
hy1_00_25              fixed                  factor                5.0000000000E+00      2.5000000000E+00      1.0000000000E+01       hy1                   1.0000000000E+00      0.0000000000E+00      1          
hy1_00_26              fixed                  factor                5.0000000000E+00      2.5000000000E+00      1.0000000000E+01       hy1                   1.0000000000E+00      0.0000000000E+00      1          
hy1_00_27              fixed                  factor                5.0000000000E+00      2.5000000000E+00      1.0000000000E+01       hy1                   1.0000000000E+00      0.0000000000E+00      1          
hy1_00_28              fixed                  factor                5.0000000000E+00      2.5000000000E+00      1.0000000000E+01       hy1                   1.0000000000E+00      0.0000000000E+00      1          
hy1_00_29              fixed                  factor                5.0000000000E+00      2.5000000000E+00      1.0000000000E+01       hy1                   1.0000000000E+00      0.0000000000E+00      1          
hy1_01_00              fixed                  factor                5.0000000000E+00      2.5000000000E+00      1.0000000000E+01       hy1                   1.0000000000E+00      0.0000000000E+00      1          
hy1_01_01              fixed                  factor                5.0000000000E+00      2.5000000000E+00      1.0000000000E+01       hy1                   1.0000000000E+00      0.0000000000E+00      1          
hy1_01_02              fixed                  factor                5.0000000000E+00      2.5000000000E+00      1.0000000000E+01       hy1                   1.0000000000E+00      0.0000000000E+00      1          
hy1_01_03              fixed                  factor                5.0000000000E+00      2.5000000000E+00      1.0000000000E+01       hy1                   1.0000000000E+00      0.0000000000E+00      1          
hy1_01_04              fixed                  factor                5.0000000000E+00      2.5000000000E+00      1.0000000000E+01       hy1                   1.0000000000E+00      0.0000000000E+00      1          
hy1_01_05              fixed                  factor                5.0000000000E+00      2.5000000000E+00      1.0000000000E+01       hy1                   1.0000000000E+00      0.0000000000E+00      1          
hy1_01_06              fixed                  factor                5.0000000000E+00      2.5000000000E+00      1.0000000000E+01       hy1                   1.0000000000E+00      0.0000000000E+00      1          
hy1_01_07              fixed                  factor                5.0000000000E+00      2.5000000000E+00      1.0000000000E+01       hy1                   1.0000000000E+00      0.0000000000E+00      1          
hy1_01_08              fixed                  factor                5.0000000000E+00      2.5000000000E+00      1.0000000000E+01       hy1                   1.0000000000E+00      0.0000000000E+00      1          
hy1_01_09              fixed                  factor                5.0000000000E+00      2.5000000000E+00      1.0000000000E+01       hy1                   1.0000000000E+00      0.0000000000E+00      1          
hy1_01_10              fixed                  factor                5.0000000000E+00      2.5000000000E+00      1.0000000000E+01       hy1                   1.0000000000E+00      0.0000000000E+00      1          
hy1_01_11              fixed                  factor                5.0000000000E+00      2.5000000000E+00      1.0000000000E+01       hy1                   1.0000000000E+00      0.0000000000E+00      1          
hy1_01_12              fixed                  factor                5.0000000000E+00      2.5000000000E+00      1.0000000000E+01       hy1                   1.0000000000E+00      0.0000000000E+00      1          
hy1_01_13              fixed                  factor                5.0000000000E+00      2.5000000000E+00      1.0000000000E+01       hy1                   1.0000000000E+00      0.0000000000E+00      1          
hy1_01_14              fixed                  factor                5.0000000000E+00      2.5000000000E+00      1.0000000000E+01       hy1                   1.0000000000E+00      0.0000000000E+00      1          
hy1_01_15              fixed                  factor                5.0000000000E+00      2.5000000000E+00      1.0000000000E+01       hy1                   1.0000000000E+00      0.0000000000E+00      1          
hy1_01_16              fixed                  factor                5.0000000000E+00      2.5000000000E+00      1.0000000000E+01       hy1                   1.0000000000E+00      0.0000000000E+00      1          
hy1_01_17              fixed                  factor                5.0000000000E+00      2.5000000000E+00      1.0000000000E+01       hy1                   1.0000000000E+00      0.0000000000E+00      1          
hy1_01_18              fixed                  factor                5.0000000000E+00      2.5000000000E+00      1.0000000000E+01       hy1                   1.0000000000E+00      0.0000000000E+00      1          
hy1_01_19              fixed                  factor                5.0000000000E+00      2.5000000000E+00      1.0000000000E+01       hy1                   1.0000000000E+00      0.0000000000E+00      1          
hy1_01_20              fixed                  factor                5.0000000000E+00      2.5000000000E+00      1.0000000000E+01       hy1                   1.0000000000E+00      0.0000000000E+00      1          
hy1_01_21              fixed                  factor                5.0000000000E+00      2.5000000000E+00      1.0000000000E+01       hy1                   1.0000000000E+00      0.0000000000E+00      1          
hy1_01_22              fixed                  factor                5.0000000000E+00      2.5000000000E+00      1.0000000000E+01       hy1                   1.0000000000E+00      0.0000000000E+00      1          
hy1_01_23              fixed                  factor                5.0000000000E+00      2.5000000000E+00      1.0000000000E+01       hy1                   1.0000000000E+00      0.0000000000E+00      1          
hy1_01_24              fixed                  factor                5.0000000000E+00      2.5000000000E+00      1.0000000000E+01       hy1                   1.0000000000E+00      0.0000000000E+00      1          
hy1_01_25              fixed                  factor                5.0000000000E+00      2.5000000000E+00      1.0000000000E+01       hy1                   1.0000000000E+00      0.0000000000E+00      1          
hy1_01_26              fixed                  factor                5.0000000000E+00      2.5000000000E+00      1.0000000000E+01       hy1                   1.0000000000E+00      0.0000000000E+00      1          
hy1_01_27              fixed                  factor                5.0000000000E+00      2.5000000000E+00      1.0000000000E+01       hy1                   1.0000000000E+00      0.0000000000E+00      1          
hy1_01_28              fixed                  factor                5.0000000000E+00      2.5000000000E+00      1.0000000000E+01       hy1                   1.0000000000E+00      0.0000000000E+00      1          
hy1_01_29              fixed                  factor                5.0000000000E+00      2.5000000000E+00      1.0000000000E+01       hy1                   1.0000000000E+00      0.0000000000E+00      1          
hy1_02_00              fixed                  factor                5.0000000000E+00      2.5000000000E+00      1.0000000000E+01       hy1                   1.0000000000E+00      0.0000000000E+00      1          
hy1_02_01              fixed                  factor                5.0000000000E+00      2.5000000000E+00      1.0000000000E+01       hy1                   1.0000000000E+00      0.0000000000E+00      1          
hy1_02_02              fixed                  factor                5.0000000000E+00      2.5000000000E+00      1.0000000000E+01       hy1                   1.0000000000E+00      0.0000000000E+00      1          
hy1_02_03              fixed                  factor                5.0000000000E+00      2.5000000000E+00      1.0000000000E+01       hy1                   1.0000000000E+00      0.0000000000E+00      1          
hy1_02_04              fixed                  factor                5.0000000000E+00      2.5000000000E+00      1.0000000000E+01       hy1                   1.0000000000E+00      0.0000000000E+00      1          
hy1_02_05              fixed                  factor                5.0000000000E+00      2.5000000000E+00      1.0000000000E+01       hy1                   1.0000000000E+00      0.0000000000E+00      1          
hy1_02_06              fixed                  factor                5.0000000000E+00      2.5000000000E+00      1.0000000000E+01       hy1                   1.0000000000E+00      0.0000000000E+00      1          
hy1_02_07              fixed                  factor                5.0000000000E+00      2.5000000000E+00      1.0000000000E+01       hy1                   1.0000000000E+00      0.0000000000E+00      1          
hy1_02_08              fixed                  factor                5.0000000000E+00      2.5000000000E+00      1.0000000000E+01       hy1                   1.0000000000E+00      0.0000000000E+00      1          
hy1_02_09              fixed                  factor                5.0000000000E+00      2.5000000000E+00      1.0000000000E+01       hy1                   1.0000000000E+00      0.0000000000E+00      1          
hy1_02_10              fixed                  factor                5.0000000000E+00      2.5000000000E+00      1.0000000000E+01       hy1                   1.0000000000E+00      0.0000000000E+00      1          
hy1_02_11              fixed                  factor                5.0000000000E+00      2.5000000000E+00      1.0000000000E+01       hy1                   1.0000000000E+00      0.0000000000E+00      1          
hy1_02_12              fixed                  factor                5.0000000000E+00      2.5000000000E+00      1.0000000000E+01       hy1                   1.0000000000E+00      0.0000000000E+00      1          
hy1_02_13              fixed                  factor                5.0000000000E+00      2.5000000000E+00      1.0000000000E+01       hy1                   1.0000000000E+00      0.0000000000E+00      1          
hy1_02_14              fixed                  factor                5.0000000000E+00      2.5000000000E+00      1.0000000000E+01       hy1                   1.0000000000E+00      0.0000000000E+00      1          
hy1_02_15              fixed                  factor                5.0000000000E+00      2.5000000000E+00      1.0000000000E+01       hy1                   1.0000000000E+00      0.0000000000E+00      1          
hy1_02_16              fixed                  factor                5.0000000000E+00      2.5000000000E+00      1.0000000000E+01       hy1                   1.0000000000E+00      0.0000000000E+00      1          
hy1_02_17              fixed                  factor                5.0000000000E+00      2.5000000000E+00      1.0000000000E+01       hy1                   1.0000000000E+00      0.0000000000E+00      1          
hy1_02_18              fixed                  factor                5.0000000000E+00      2.5000000000E+00      1.0000000000E+01       hy1                   1.0000000000E+00      0.0000000000E+00      1          
hy1_02_19              fixed                  factor                5.0000000000E+00      2.5000000000E+00      1.0000000000E+01       hy1                   1.0000000000E+00      0.0000000000E+00      1          
hy1_02_20              fixed                  factor                5.0000000000E+00      2.5000000000E+00      1.0000000000E+01       hy1                   1.0000000000E+00      0.0000000000E+00      1          
hy1_02_21              fixed                  factor                5.0000000000E+00      2.5000000000E+00      1.0000000000E+01       hy1                   1.0000000000E+00      0.0000000000E+00      1          
hy1_02_22              fixed                  factor                5.0000000000E+00      2.5000000000E+00      1.0000000000E+01       hy1                   1.0000000000E+00      0.0000000000E+00      1          
hy1_02_23              fixed                  factor                5.0000000000E+00      2.5000000000E+00      1.0000000000E+01       hy1                   1.0000000000E+00      0.0000000000E+00      1          
hy1_02_24              fixed                  factor                5.0000000000E+00      2.5000000000E+00      1.0000000000E+01       hy1                   1.0000000000E+00      0.0000000000E+00      1          
hy1_02_25              fixed                  factor                5.0000000000E+00      2.5000000000E+00      1.0000000000E+01       hy1                   1.0000000000E+00      0.0000000000E+00      1          
hy1_02_26              fixed                  factor                5.0000000000E+00      2.5000000000E+00      1.0000000000E+01       hy1                   1.0000000000E+00      0.0000000000E+00      1          
hy1_02_27              fixed                  factor                5.0000000000E+00      2.5000000000E+00      1.0000000000E+01       hy1                   1.0000000000E+00      0.0000000000E+00      1          
hy1_02_28              fixed                  factor                5.0000000000E+00      2.5000000000E+00      1.0000000000E+01       hy1                   1.0000000000E+00      0.0000000000E+00      1          
hy1_02_29              fixed                  factor                5.0000000000E+00      2.5000000000E+00      1.0000000000E+01       hy1                   1.0000000000E+00      0.0000000000E+00      1          
hy1_03_00              fixed                  factor                5.0000000000E+00      2.5000000000E+00      1.0000000000E+01       hy1                   1.0000000000E+00      0.0000000000E+00      1          
hy1_03_01              fixed                  factor                5.0000000000E+00      2.5000000000E+00      1.0000000000E+01       hy1                   1.0000000000E+00      0.0000000000E+00      1          
hy1_03_02              fixed                  factor                5.0000000000E+00      2.5000000000E+00      1.0000000000E+01       hy1                   1.0000000000E+00      0.0000000000E+00      1          
hy1_03_03              fixed                  factor                5.0000000000E+00      2.5000000000E+00      1.0000000000E+01       hy1                   1.0000000000E+00      0.0000000000E+00      1          
hy1_03_04              fixed                  factor                5.0000000000E+00      2.5000000000E+00      1.0000000000E+01       hy1                   1.0000000000E+00      0.0000000000E+00      1          
hy1_03_05              fixed                  factor                5.0000000000E+00      2.5000000000E+00      1.0000000000E+01       hy1                   1.0000000000E+00      0.0000000000E+00      1          
hy1_03_06              fixed                  factor                5.0000000000E+00      2.5000000000E+00      1.0000000000E+01       hy1                   1.0000000000E+00      0.0000000000E+00      1          
hy1_03_07              fixed                  factor                5.0000000000E+00      2.5000000000E+00      1.0000000000E+01       hy1                   1.0000000000E+00      0.0000000000E+00      1          
hy1_03_08              fixed                  factor                5.0000000000E+00      2.5000000000E+00      1.0000000000E+01       hy1                   1.0000000000E+00      0.0000000000E+00      1          
hy1_03_09              fixed                  factor                5.0000000000E+00      2.5000000000E+00      1.0000000000E+01       hy1                   1.0000000000E+00      0.0000000000E+00      1          
hy1_03_10              fixed                  factor                5.0000000000E+00      2.5000000000E+00      1.0000000000E+01       hy1                   1.0000000000E+00      0.0000000000E+00      1          
hy1_03_11              fixed                  factor                5.0000000000E+00      2.5000000000E+00      1.0000000000E+01       hy1                   1.0000000000E+00      0.0000000000E+00      1          
hy1_03_12              fixed                  factor                5.0000000000E+00      2.5000000000E+00      1.0000000000E+01       hy1                   1.0000000000E+00      0.0000000000E+00      1          
hy1_03_13              fixed                  factor                5.0000000000E+00      2.5000000000E+00      1.0000000000E+01       hy1                   1.0000000000E+00      0.0000000000E+00      1          
hy1_03_14              fixed                  factor                5.0000000000E+00      2.5000000000E+00      1.0000000000E+01       hy1                   1.0000000000E+00      0.0000000000E+00      1          
hy1_03_15              fixed                  factor                5.0000000000E+00      2.5000000000E+00      1.0000000000E+01       hy1                   1.0000000000E+00      0.0000000000E+00      1          
hy1_03_16              fixed                  factor                5.0000000000E+00      2.5000000000E+00      1.0000000000E+01       hy1                   1.0000000000E+00      0.0000000000E+00      1          
hy1_03_17              fixed                  factor                5.0000000000E+00      2.5000000000E+00      1.0000000000E+01       hy1                   1.0000000000E+00      0.0000000000E+00      1          
hy1_03_18              fixed                  factor                5.0000000000E+00      2.5000000000E+00      1.0000000000E+01       hy1                   1.0000000000E+00      0.0000000000E+00      1          
hy1_03_19              fixed                  factor                5.0000000000E+00      2.5000000000E+00      1.0000000000E+01       hy1                   1.0000000000E+00      0.0000000000E+00      1          
hy1_03_20              fixed                  factor                5.0000000000E+00      2.5000000000E+00      1.0000000000E+01       hy1                   1.0000000000E+00      0.0000000000E+00      1          
hy1_03_21              fixed                  factor                5.0000000000E+00      2.5000000000E+00      1.0000000000E+01       hy1                   1.0000000000E+00      0.0000000000E+00      1          
hy1_03_22              fixed                  factor                5.0000000000E+00      2.5000000000E+00      1.0000000000E+01       hy1                   1.0000000000E+00      0.0000000000E+00      1          
hy1_03_23              fixed                  factor                5.0000000000E+00      2.5000000000E+00      1.0000000000E+01       hy1                   1.0000000000E+00      0.0000000000E+00      1          
hy1_03_24              fixed                  factor                5.0000000000E+00      2.5000000000E+00      1.0000000000E+01       hy1                   1.0000000000E+00      0.0000000000E+00      1          
hy1_03_25              fixed                  factor                5.0000000000E+00      2.5000000000E+00      1.0000000000E+01       hy1                   1.0000000000E+00      0.0000000000E+00      1          
hy1_03_26              fixed                  factor                5.0000000000E+00      2.5000000000E+00      1.0000000000E+01       hy1                   1.0000000000E+00      0.0000000000E+00      1          
hy1_03_27              fixed                  factor                5.0000000000E+00      2.5000000000E+00      1.0000000000E+01       hy1                   1.0000000000E+00      0.0000000000E+00      1          
hy1_03_28              fixed                  factor                5.0000000000E+00      2.5000000000E+00      1.0000000000E+01       hy1                   1.0000000000E+00      0.0000000000E+00      1          
hy1_03_29              fixed                  factor                5.0000000000E+00      2.5000000000E+00      1.0000000000E+01       hy1                   1.0000000000E+00      0.0000000000E+00      1          
hy1_04_00              fixed                  factor                5.0000000000E+00      2.5000000000E+00      1.0000000000E+01       hy1                   1.0000000000E+00      0.0000000000E+00      1          
hy1_04_01              fixed                  factor                5.0000000000E+00      2.5000000000E+00      1.0000000000E+01       hy1                   1.0000000000E+00      0.0000000000E+00      1          
hy1_04_02              fixed                  factor                5.0000000000E+00      2.5000000000E+00      1.0000000000E+01       hy1                   1.0000000000E+00      0.0000000000E+00      1          
hy1_04_03              fixed                  factor                5.0000000000E+00      2.5000000000E+00      1.0000000000E+01       hy1                   1.0000000000E+00      0.0000000000E+00      1          
hy1_04_04              fixed                  factor                5.0000000000E+00      2.5000000000E+00      1.0000000000E+01       hy1                   1.0000000000E+00      0.0000000000E+00      1          
hy1_04_05              fixed                  factor                5.0000000000E+00      2.5000000000E+00      1.0000000000E+01       hy1                   1.0000000000E+00      0.0000000000E+00      1          
hy1_04_06              fixed                  factor                5.0000000000E+00      2.5000000000E+00      1.0000000000E+01       hy1                   1.0000000000E+00      0.0000000000E+00      1          
hy1_04_07              fixed                  factor                5.0000000000E+00      2.5000000000E+00      1.0000000000E+01       hy1                   1.0000000000E+00      0.0000000000E+00      1          
hy1_04_08              fixed                  factor                5.0000000000E+00      2.5000000000E+00      1.0000000000E+01       hy1                   1.0000000000E+00      0.0000000000E+00      1          