ptf ~
# WEL package for  MODFLOW-2005, generated by Flopy.
       690         0
       690         0 # stress period 0
         1         2         1   ~ i01j00_sp ~ i01j00_sp
         1         2         2   ~ i01j01_sp ~ i01j01_sp
         1         2         3   ~ i01j02_sp ~ i01j02_sp
         1         2         4   ~ i01j03_sp ~ i01j03_sp
         1         2         5   ~ i01j04_sp ~ i01j04_sp
         1         2         6   ~ i01j05_sp ~ i01j05_sp
         1         2         7   ~ i01j06_sp ~ i01j06_sp
         1         2         8   ~ i01j07_sp ~ i01j07_sp
         1         2         9   ~ i01j08_sp ~ i01j08_sp
         1         2        10   ~ i01j09_sp ~ i01j09_sp
         1         2        11   ~ i01j10_sp ~ i01j10_sp
         1         2        12   ~ i01j11_sp ~ i01j11_sp
         1         2        13   ~ i01j12_sp ~ i01j12_sp
         1         2        14   ~ i01j13_sp ~ i01j13_sp
         1         2        15   ~ i01j14_sp ~ i01j14_sp
         1         2        16   ~ i01j15_sp ~ i01j15_sp
         1         2        17   ~ i01j16_sp ~ i01j16_sp
         1         2        18   ~ i01j17_sp ~ i01j17_sp
         1         2        19   ~ i01j18_sp ~ i01j18_sp
         1         2        20   ~ i01j19_sp ~ i01j19_sp
         1         2        21   ~ i01j20_sp ~ i01j20_sp
         1         2        22   ~ i01j21_sp ~ i01j21_sp
         1         2        23   ~ i01j22_sp ~ i01j22_sp
         1         2        24   ~ i01j23_sp ~ i01j23_sp
         1         2        25   ~ i01j24_sp ~ i01j24_sp
         1         2        26   ~ i01j25_sp ~ i01j25_sp
         1         2        27   ~ i01j26_sp ~ i01j26_sp
         1         2        28   ~ i01j27_sp ~ i01j27_sp
         1         2        29   ~ i01j28_sp ~ i01j28_sp
         1         2        30   ~ i01j29_sp ~ i01j29_sp
         1         3         1   ~ i02j00_sp ~ i02j00_sp
         1         3         2   ~ i02j01_sp ~ i02j01_sp
         1         3         3   ~ i02j02_sp ~ i02j02_sp
         1         3         4   ~ i02j03_sp ~ i02j03_sp
         1         3         5   ~ i02j04_sp ~ i02j04_sp
         1         3         6   ~ i02j05_sp ~ i02j05_sp
         1         3         7   ~ i02j06_sp ~ i02j06_sp
         1         3         8   ~ i02j07_sp ~ i02j07_sp
         1         3         9   ~ i02j08_sp ~ i02j08_sp
         1         3        10   ~ i02j09_sp ~ i02j09_sp
         1         3        11   ~ i02j10_sp ~ i02j10_sp
         1         3        12   ~ i02j11_sp ~ i02j11_sp
         1         3        13   ~ i02j12_sp ~ i02j12_sp
         1         3        14   ~ i02j13_sp ~ i02j13_sp
         1         3        15   ~ i02j14_sp ~ i02j14_sp
         1         3        16   ~ i02j15_sp ~ i02j15_sp
         1         3        17   ~ i02j16_sp ~ i02j16_sp
         1         3        18   ~ i02j17_sp ~ i02j17_sp
         1         3        19   ~ i02j18_sp ~ i02j18_sp
         1         3        20   ~ i02j19_sp ~ i02j19_sp
         1         3        21   ~ i02j20_sp ~ i02j20_sp
         1         3        22   ~ i02j21_sp ~ i02j21_sp
         1         3        23   ~ i02j22_sp ~ i02j22_sp
         1         3        24   ~ i02j23_sp ~ i02j23_sp
         1         3        25   ~ i02j24_sp ~ i02j24_sp
         1         3        26   ~ i02j25_sp ~ i02j25_sp
         1         3        27   ~ i02j26_sp ~ i02j26_sp
         1         3        28   ~ i02j27_sp ~ i02j27_sp
         1         3        29   ~ i02j28_sp ~ i02j28_sp
         1         3        30   ~ i02j29_sp ~ i02j29_sp
         1         4         1   ~ i03j00_sp ~ i03j00_sp
         1         4         2   ~ i03j01_sp ~ i03j01_sp
         1         4         3   ~ i03j02_sp ~ i03j02_sp
         1         4         4   ~ i03j03_sp ~ i03j03_sp
         1         4         5   ~ i03j04_sp ~ i03j04_sp
         1         4         6   ~ i03j05_sp ~ i03j05_sp
         1         4         7   ~ i03j06_sp ~ i03j06_sp
         1         4         8   ~ i03j07_sp ~ i03j07_sp
         1         4         9   ~ i03j08_sp ~ i03j08_sp
         1         4        10   ~ i03j09_sp ~ i03j09_sp
         1         4        11   ~ i03j10_sp ~ i03j10_sp
         1         4        12   ~ i03j11_sp ~ i03j11_sp
         1         4        13   ~ i03j12_sp ~ i03j12_sp
         1         4        14   ~ i03j13_sp ~ i03j13_sp
         1         4        15   ~ i03j14_sp ~ i03j14_sp
         1         4        16   ~ i03j15_sp ~ i03j15_sp
         1         4        17   ~ i03j16_sp ~ i03j16_sp
         1         4        18   ~ i03j17_sp ~ i03j17_sp
         1         4        19   ~ i03j18_sp ~ i03j18_sp
         1         4        20   ~ i03j19_sp ~ i03j19_sp
         1         4        21   ~ i03j20_sp ~ i03j20_sp
         1         4        22   ~ i03j21_sp ~ i03j21_sp
         1         4        23   ~ i03j22_sp ~ i03j22_sp
         1         4        24   ~ i03j23_sp ~ i03j23_sp
         1         4        25   ~ i03j24_sp ~ i03j24_sp
         1         4        26   ~ i03j25_sp ~ i03j25_sp
         1         4        27   ~ i03j26_sp ~ i03j26_sp
         1         4        28   ~ i03j27_sp ~ i03j27_sp
         1         4        29   ~ i03j28_sp ~ i03j28_sp
         1         4        30   ~ i03j29_sp ~ i03j29_sp
         1         5         1   ~ i04j00_sp ~ i04j00_sp
         1         5         2   ~ i04j01_sp ~ i04j01_sp
         1         5         3   ~ i04j02_sp ~ i04j02_sp
         1         5         4   ~ i04j03_sp ~ i04j03_sp
         1         5         5   ~ i04j04_sp ~ i04j04_sp
         1         5         6   ~ i04j05_sp ~ i04j05_sp
         1         5         7   ~ i04j06_sp ~ i04j06_sp
         1         5         8   ~ i04j07_sp ~ i04j07_sp
         1         5         9   ~ i04j08_sp ~ i04j08_sp
         1         5        10   ~ i04j09_sp ~ i04j09_sp
         1         5        11   ~ i04j10_sp ~ i04j10_sp
         1         5        12   ~ i04j11_sp ~ i04j11_sp
         1         5        13   ~ i04j12_sp ~ i04j12_sp
         1         5        14   ~ i04j13_sp ~ i04j13_sp
         1         5        15   ~ i04j14_sp ~ i04j14_sp
         1         5        16   ~ i04j15_sp ~ i04j15_sp
         1         5        17   ~ i04j16_sp ~ i04j16_sp
         1         5        18   ~ i04j17_sp ~ i04j17_sp
         1         5        19   ~ i04j18_sp ~ i04j18_sp
         1         5        20   ~ i04j19_sp ~ i04j19_sp
         1         5        21   ~ i04j20_sp ~ i04j20_sp
         1         5        22   ~ i04j21_sp ~ i04j21_sp
         1         5        23   ~ i04j22_sp ~ i04j22_sp
         1         5        24   ~ i04j23_sp ~ i04j23_sp
         1         5        25   ~ i04j24_sp ~ i04j24_sp
         1         5        26   ~ i04j25_sp ~ i04j25_sp
         1         5        27   ~ i04j26_sp ~ i04j26_sp
         1         5        28   ~ i04j27_sp ~ i04j27_sp
         1         5        29   ~ i04j28_sp ~ i04j28_sp
         1         5        30   ~ i04j29_sp ~ i04j29_sp
         1         6         1   ~ i05j00_sp ~ i05j00_sp
         1         6         2   ~ i05j01_sp ~ i05j01_sp
         1         6         3   ~ i05j02_sp ~ i05j02_sp
         1         6         4   ~ i05j03_sp ~ i05j03_sp
         1         6         5   ~ i05j04_sp ~ i05j04_sp
         1         6         6   ~ i05j05_sp ~ i05j05_sp
         1         6         7   ~ i05j06_sp ~ i05j06_sp
         1         6         8   ~ i05j07_sp ~ i05j07_sp
         1         6         9   ~ i05j08_sp ~ i05j08_sp
         1         6        10   ~ i05j09_sp ~ i05j09_sp
         1         6        11   ~ i05j10_sp ~ i05j10_sp
         1         6        12   ~ i05j11_sp ~ i05j11_sp
         1         6        13   ~ i05j12_sp ~ i05j12_sp
         1         6        14   ~ i05j13_sp ~ i05j13_sp
         1         6        15   ~ i05j14_sp ~ i05j14_sp
         1         6        16   ~ i05j15_sp ~ i05j15_sp
         1         6        17   ~ i05j16_sp ~ i05j16_sp
         1         6        18   ~ i05j17_sp ~ i05j17_sp
         1         6        19   ~ i05j18_sp ~ i05j18_sp
         1         6        20   ~ i05j19_sp ~ i05j19_sp
         1         6        21   ~ i05j20_sp ~ i05j20_sp
         1         6        22   ~ i05j21_sp ~ i05j21_sp
         1         6        23   ~ i05j22_sp ~ i05j22_sp
         1         6        24   ~ i05j23_sp ~ i05j23_sp
         1         6        25   ~ i05j24_sp ~ i05j24_sp
         1         6        26   ~ i05j25_sp ~ i05j25_sp
         1         6        27   ~ i05j26_sp ~ i05j26_sp
         1         6        28   ~ i05j27_sp ~ i05j27_sp
         1         6        29   ~ i05j28_sp ~ i05j28_sp
         1         6        30   ~ i05j29_sp ~ i05j29_sp
         1         7         1   ~ i06j00_sp ~ i06j00_sp
         1         7         2   ~ i06j01_sp ~ i06j01_sp
         1         7         3   ~ i06j02_sp ~ i06j02_sp
         1         7         4   ~ i06j03_sp ~ i06j03_sp
         1         7         5   ~ i06j04_sp ~ i06j04_sp
         1         7         6   ~ i06j05_sp ~ i06j05_sp
         1         7         7   ~ i06j06_sp ~ i06j06_sp
         1         7         8   ~ i06j07_sp ~ i06j07_sp
         1         7         9   ~ i06j08_sp ~ i06j08_sp
         1         7        10   ~ i06j09_sp ~ i06j09_sp
         1         7        11   ~ i06j10_sp ~ i06j10_sp
         1         7        12   ~ i06j11_sp ~ i06j11_sp
         1         7        13   ~ i06j12_sp ~ i06j12_sp
         1         7        14   ~ i06j13_sp ~ i06j13_sp
         1         7        15   ~ i06j14_sp ~ i06j14_sp
         1         7        16   ~ i06j15_sp ~ i06j15_sp
         1         7        17   ~ i06j16_sp ~ i06j16_sp
         1         7        18   ~ i06j17_sp ~ i06j17_sp
         1         7        19   ~ i06j18_sp ~ i06j18_sp
         1         7        20   ~ i06j19_sp ~ i06j19_sp
         1         7        21   ~ i06j20_sp ~ i06j20_sp
         1         7        22   ~ i06j21_sp ~ i06j21_sp
         1         7        23   ~ i06j22_sp ~ i06j22_sp
         1         7        24   ~ i06j23_sp ~ i06j23_sp
         1         7        25   ~ i06j24_sp ~ i06j24_sp
         1         7        26   ~ i06j25_sp ~ i06j25_sp
         1         7        27   ~ i06j26_sp ~ i06j26_sp
         1         7        28   ~ i06j27_sp ~ i06j27_sp
         1         7        29   ~ i06j28_sp ~ i06j28_sp
         1         7        30   ~ i06j29_sp ~ i06j29_sp
         1         8         1   ~ i07j00_sp ~ i07j00_sp
         1         8         2   ~ i07j01_sp ~ i07j01_sp
         1         8         3   ~ i07j02_sp ~ i07j02_sp
         1         8         4   ~ i07j03_sp ~ i07j03_sp
         1         8         5   ~ i07j04_sp ~ i07j04_sp
         1         8         6   ~ i07j05_sp ~ i07j05_sp
         1         8         7   ~ i07j06_sp ~ i07j06_sp
         1         8         8   ~ i07j07_sp ~ i07j07_sp
         1         8         9   ~ i07j08_sp ~ i07j08_sp
         1         8        10   ~ i07j09_sp ~ i07j09_sp
         1         8        11   ~ i07j10_sp ~ i07j10_sp
         1         8        12   ~ i07j11_sp ~ i07j11_sp
         1         8        13   ~ i07j12_sp ~ i07j12_sp
         1         8        14   ~ i07j13_sp ~ i07j13_sp
         1         8        15   ~ i07j14_sp ~ i07j14_sp
         1         8        16   ~ i07j15_sp ~ i07j15_sp
         1         8        17   ~ i07j16_sp ~ i07j16_sp
         1         8        18   ~ i07j17_sp ~ i07j17_sp
         1         8        19   ~ i07j18_sp ~ i07j18_sp
         1         8        20   ~ i07j19_sp ~ i07j19_sp
         1         8        21   ~ i07j20_sp ~ i07j20_sp
         1         8        22   ~ i07j21_sp ~ i07j21_sp
         1         8        23   ~ i07j22_sp ~ i07j22_sp
         1         8        24   ~ i07j23_sp ~ i07j23_sp
         1         8        25   ~ i07j24_sp ~ i07j24_sp
         1         8        26   ~ i07j25_sp ~ i07j25_sp
         1         8        27   ~ i07j26_sp ~ i07j26_sp
         1         8        28   ~ i07j27_sp ~ i07j27_sp
         1         8        29   ~ i07j28_sp ~ i07j28_sp
         1         8        30   ~ i07j29_sp ~ i07j29_sp
         1         9         1   ~ i08j00_sp ~ i08j00_sp
         1         9         2   ~ i08j01_sp ~ i08j01_sp
         1         9         3   ~ i08j02_sp ~ i08j02_sp
         1         9         4   ~ i08j03_sp ~ i08j03_sp
         1         9         5   ~ i08j04_sp ~ i08j04_sp
         1         9         6   ~ i08j05_sp ~ i08j05_sp
         1         9         7   ~ i08j06_sp ~ i08j06_sp
         1         9         8   ~ i08j07_sp ~ i08j07_sp
         1         9         9   ~ i08j08_sp ~ i08j08_sp
         1         9        10   ~ i08j09_sp ~ i08j09_sp
         1         9        11   ~ i08j10_sp ~ i08j10_sp
         1         9        12   ~ i08j11_sp ~ i08j11_sp
         1         9        13   ~ i08j12_sp ~ i08j12_sp
         1         9        14   ~ i08j13_sp ~ i08j13_sp
         1         9        15   ~ i08j14_sp ~ i08j14_sp
         1         9        16   ~ i08j15_sp ~ i08j15_sp
         1         9        17   ~ i08j16_sp ~ i08j16_sp
         1         9        18   ~ i08j17_sp ~ i08j17_sp
         1         9        19   ~ i08j18_sp ~ i08j18_sp
         1         9        20   ~ i08j19_sp ~ i08j19_sp
         1         9        21   ~ i08j20_sp ~ i08j20_sp
         1         9        22   ~ i08j21_sp ~ i08j21_sp
         1         9        23   ~ i08j22_sp ~ i08j22_sp
         1         9        24   ~ i08j23_sp ~ i08j23_sp
         1         9        25   ~ i08j24_sp ~ i08j24_sp
         1         9        26   ~ i08j25_sp ~ i08j25_sp
         1         9        27   ~ i08j26_sp ~ i08j26_sp
         1         9        28   ~ i08j27_sp ~ i08j27_sp
         1         9        29   ~ i08j28_sp ~ i08j28_sp
         1         9        30   ~ i08j29_sp ~ i08j29_sp
         1        10         1   ~ i09j00_sp ~ i09j00_sp
         1        10         2   ~ i09j01_sp ~ i09j01_sp
         1        10         3   ~ i09j02_sp ~ i09j02_sp
         1        10         4   ~ i09j03_sp ~ i09j03_sp
         1        10         5   ~ i09j04_sp ~ i09j04_sp
         1        10         6   ~ i09j05_sp ~ i09j05_sp
         1        10         7   ~ i09j06_sp ~ i09j06_sp
         1        10         8   ~ i09j07_sp ~ i09j07_sp
         1        10         9   ~ i09j08_sp ~ i09j08_sp
         1        10        10   ~ i09j09_sp ~ i09j09_sp
         1        10        11   ~ i09j10_sp ~ i09j10_sp
         1        10        12   ~ i09j11_sp ~ i09j11_sp
         1        10        13   ~ i09j12_sp ~ i09j12_sp
         1        10        14   ~ i09j13_sp ~ i09j13_sp
         1        10        15   ~ i09j14_sp ~ i09j14_sp
         1        10        16   ~ i09j15_sp ~ i09j15_sp
         1        10        17   ~ i09j16_sp ~ i09j16_sp
         1        10        18   ~ i09j17_sp ~ i09j17_sp
         1        10        19   ~ i09j18_sp ~ i09j18_sp
         1        10        20   ~ i09j19_sp ~ i09j19_sp
         1        10        21   ~ i09j20_sp ~ i09j20_sp
         1        10        22   ~ i09j21_sp ~ i09j21_sp
         1        10        23   ~ i09j22_sp ~ i09j22_sp
         1        10        24   ~ i09j23_sp ~ i09j23_sp
         1        10        25   ~ i09j24_sp ~ i09j24_sp
         1        10        26   ~ i09j25_sp ~ i09j25_sp
         1        10        27   ~ i09j26_sp ~ i09j26_sp
         1        10        28   ~ i09j27_sp ~ i09j27_sp
         1        10        29   ~ i09j28_sp ~ i09j28_sp
         1        10        30   ~ i09j29_sp ~ i09j29_sp
         1        11         1   ~ i10j00_sp ~ i10j00_sp
         1        11         2   ~ i10j01_sp ~ i10j01_sp
         1        11         3   ~ i10j02_sp ~ i10j02_sp
         1        11         4   ~ i10j03_sp ~ i10j03_sp
         1        11         5   ~ i10j04_sp ~ i10j04_sp
         1        11         6   ~ i10j05_sp ~ i10j05_sp
         1        11         7   ~ i10j06_sp ~ i10j06_sp
         1        11         8   ~ i10j07_sp ~ i10j07_sp
         1        11         9   ~ i10j08_sp ~ i10j08_sp
         1        11        10   ~ i10j09_sp ~ i10j09_sp
         1        11        11   ~ i10j10_sp ~ i10j10_sp
         1        11        12   ~ i10j11_sp ~ i10j11_sp
         1        11        13   ~ i10j12_sp ~ i10j12_sp
         1        11        14   ~ i10j13_sp ~ i10j13_sp
         1        11        15   ~ i10j14_sp ~ i10j14_sp
         1        11        16   ~ i10j15_sp ~ i10j15_sp
         1        11        17   ~ i10j16_sp ~ i10j16_sp
         1        11        18   ~ i10j17_sp ~ i10j17_sp
         1        11        19   ~ i10j18_sp ~ i10j18_sp
         1        11        20   ~ i10j19_sp ~ i10j19_sp
         1        11        21   ~ i10j20_sp ~ i10j20_sp
         1        11        22   ~ i10j21_sp ~ i10j21_sp
         1        11        23   ~ i10j22_sp ~ i10j22_sp
         1        11        24   ~ i10j23_sp ~ i10j23_sp
         1        11        25   ~ i10j24_sp ~ i10j24_sp
         1        11        26   ~ i10j25_sp ~ i10j25_sp
         1        11        27   ~ i10j26_sp ~ i10j26_sp
         1        11        28   ~ i10j27_sp ~ i10j27_sp
         1        11        29   ~ i10j28_sp ~ i10j28_sp
         1        11        30   ~ i10j29_sp ~ i10j29_sp
         1        12         1   ~ i11j00_sp ~ i11j00_sp
         1        12         2   ~ i11j01_sp ~ i11j01_sp
         1        12         3   ~ i11j02_sp ~ i11j02_sp
         1        12         4   ~ i11j03_sp ~ i11j03_sp
         1        12         5   ~ i11j04_sp ~ i11j04_sp
         1        12         6   ~ i11j05_sp ~ i11j05_sp
         1        12         7   ~ i11j06_sp ~ i11j06_sp
         1        12         8   ~ i11j07_sp ~ i11j07_sp
         1        12         9   ~ i11j08_sp ~ i11j08_sp
         1        12        10   ~ i11j09_sp ~ i11j09_sp
         1        12        11   ~ i11j10_sp ~ i11j10_sp
         1        12        12   ~ i11j11_sp ~ i11j11_sp
         1        12        13   ~ i11j12_sp ~ i11j12_sp
         1        12        14   ~ i11j13_sp ~ i11j13_sp
         1        12        15   ~ i11j14_sp ~ i11j14_sp
         1        12        16   ~ i11j15_sp ~ i11j15_sp
         1        12        17   ~ i11j16_sp ~ i11j16_sp
         1        12        18   ~ i11j17_sp ~ i11j17_sp
         1        12        19   ~ i11j18_sp ~ i11j18_sp
         1        12        20   ~ i11j19_sp ~ i11j19_sp
         1        12        21   ~ i11j20_sp ~ i11j20_sp
         1        12        22   ~ i11j21_sp ~ i11j21_sp
         1        12        23   ~ i11j22_sp ~ i11j22_sp
         1        12        24   ~ i11j23_sp ~ i11j23_sp
         1        12        25   ~ i11j24_sp ~ i11j24_sp
         1        12        26   ~ i11j25_sp ~ i11j25_sp
         1        12        27   ~ i11j26_sp ~ i11j26_sp
         1        12        28   ~ i11j27_sp ~ i11j27_sp
         1        12        29   ~ i11j28_sp ~ i11j28_sp
         1        12        30   ~ i11j29_sp ~ i11j29_sp
         1        13         1   ~ i12j00_sp ~ i12j00_sp
         1        13         2   ~ i12j01_sp ~ i12j01_sp
         1        13         3   ~ i12j02_sp ~ i12j02_sp
         1        13         4   ~ i12j03_sp ~ i12j03_sp
         1        13         5   ~ i12j04_sp ~ i12j04_sp
         1        13         6   ~ i12j05_sp ~ i12j05_sp
         1        13         7   ~ i12j06_sp ~ i12j06_sp
         1        13         8   ~ i12j07_sp ~ i12j07_sp
         1        13         9   ~ i12j08_sp ~ i12j08_sp
         1        13        10   ~ i12j09_sp ~ i12j09_sp
         1        13        11   ~ i12j10_sp ~ i12j10_sp
         1        13        12   ~ i12j11_sp ~ i12j11_sp
         1        13        13   ~ i12j12_sp ~ i12j12_sp
         1        13        14   ~ i12j13_sp ~ i12j13_sp
         1        13        15   ~ i12j14_sp ~ i12j14_sp
         1        13        16   ~ i12j15_sp ~ i12j15_sp
         1        13        17   ~ i12j16_sp ~ i12j16_sp
         1        13        18   ~ i12j17_sp ~ i12j17_sp
         1        13        19   ~ i12j18_sp ~ i12j18_sp
         1        13        20   ~ i12j19_sp ~ i12j19_sp
         1        13        21   ~ i12j20_sp ~ i12j20_sp
         1        13        22   ~ i12j21_sp ~ i12j21_sp
         1        13        23   ~ i12j22_sp ~ i12j22_sp
         1        13        24   ~ i12j23_sp ~ i12j23_sp
         1        13        25   ~ i12j24_sp ~ i12j24_sp
         1        13        26   ~ i12j25_sp ~ i12j25_sp
         1        13        27   ~ i12j26_sp ~ i12j26_sp
         1        13        28   ~ i12j27_sp ~ i12j27_sp
         1        13        29   ~ i12j28_sp ~ i12j28_sp
         1        13        30   ~ i12j29_sp ~ i12j29_sp
         1        14         1   ~ i13j00_sp ~ i13j00_sp
         1        14         2   ~ i13j01_sp ~ i13j01_sp
         1        14         3   ~ i13j02_sp ~ i13j02_sp
         1        14         4   ~ i13j03_sp ~ i13j03_sp
         1        14         5   ~ i13j04_sp ~ i13j04_sp
         1        14         6   ~ i13j05_sp ~ i13j05_sp
         1        14         7   ~ i13j06_sp ~ i13j06_sp
         1        14         8   ~ i13j07_sp ~ i13j07_sp
         1        14         9   ~ i13j08_sp ~ i13j08_sp
         1        14        10   ~ i13j09_sp ~ i13j09_sp
         1        14        11   ~ i13j10_sp ~ i13j10_sp
         1        14        12   ~ i13j11_sp ~ i13j11_sp
         1        14        13   ~ i13j12_sp ~ i13j12_sp
         1        14        14   ~ i13j13_sp ~ i13j13_sp
         1        14        15   ~ i13j14_sp ~ i13j14_sp
         1        14        16   ~ i13j15_sp ~ i13j15_sp
         1        14        17   ~ i13j16_sp ~ i13j16_sp
         1        14        18   ~ i13j17_sp ~ i13j17_sp
         1        14        19   ~ i13j18_sp ~ i13j18_sp
         1        14        20   ~ i13j19_sp ~ i13j19_sp
         1        14        21   ~ i13j20_sp ~ i13j20_sp
         1        14        22   ~ i13j21_sp ~ i13j21_sp
         1        14        23   ~ i13j22_sp ~ i13j22_sp
         1        14        24   ~ i13j23_sp ~ i13j23_sp
         1        14        25   ~ i13j24_sp ~ i13j24_sp
         1        14        26   ~ i13j25_sp ~ i13j25_sp
         1        14        27   ~ i13j26_sp ~ i13j26_sp
         1        14        28   ~ i13j27_sp ~ i13j27_sp
         1        14        29   ~ i13j28_sp ~ i13j28_sp
         1        14        30   ~ i13j29_sp ~ i13j29_sp
         1        15         1   ~ i14j00_sp ~ i14j00_sp
         1        15         2   ~ i14j01_sp ~ i14j01_sp
         1        15         3   ~ i14j02_sp ~ i14j02_sp
         1        15         4   ~ i14j03_sp ~ i14j03_sp
         1        15         5   ~ i14j04_sp ~ i14j04_sp
         1        15         6   ~ i14j05_sp ~ i14j05_sp
         1        15         7   ~ i14j06_sp ~ i14j06_sp
         1        15         8   ~ i14j07_sp ~ i14j07_sp
         1        15         9   ~ i14j08_sp ~ i14j08_sp
         1        15        10   ~ i14j09_sp ~ i14j09_sp
         1        15        11   ~ i14j10_sp ~ i14j10_sp
         1        15        12   ~ i14j11_sp ~ i14j11_sp
         1        15        13   ~ i14j12_sp ~ i14j12_sp
         1        15        14   ~ i14j13_sp ~ i14j13_sp
         1        15        15   ~ i14j14_sp ~ i14j14_sp
         1        15        16   ~ i14j15_sp ~ i14j15_sp
         1        15        17   ~ i14j16_sp ~ i14j16_sp
         1        15        18   ~ i14j17_sp ~ i14j17_sp
         1        15        19   ~ i14j18_sp ~ i14j18_sp
         1        15        20   ~ i14j19_sp ~ i14j19_sp
         1        15        21   ~ i14j20_sp ~ i14j20_sp
         1        15        22   ~ i14j21_sp ~ i14j21_sp
         1        15        23   ~ i14j22_sp ~ i14j22_sp
         1        15        24   ~ i14j23_sp ~ i14j23_sp
         1        15        25   ~ i14j24_sp ~ i14j24_sp
         1        15        26   ~ i14j25_sp ~ i14j25_sp
         1        15        27   ~ i14j26_sp ~ i14j26_sp
         1        15        28   ~ i14j27_sp ~ i14j27_sp
         1        15        29   ~ i14j28_sp ~ i14j28_sp
         1        15        30   ~ i14j29_sp ~ i14j29_sp
         1        16         1   ~ i15j00_sp ~ i15j00_sp
         1        16         2   ~ i15j01_sp ~ i15j01_sp
         1        16         3   ~ i15j02_sp ~ i15j02_sp
         1        16         4   ~ i15j03_sp ~ i15j03_sp
         1        16         5   ~ i15j04_sp ~ i15j04_sp
         1        16         6   ~ i15j05_sp ~ i15j05_sp
         1        16         7   ~ i15j06_sp ~ i15j06_sp
         1        16         8   ~ i15j07_sp ~ i15j07_sp
         1        16         9   ~ i15j08_sp ~ i15j08_sp
         1        16        10   ~ i15j09_sp ~ i15j09_sp
         1        16        11   ~ i15j10_sp ~ i15j10_sp
         1        16        12   ~ i15j11_sp ~ i15j11_sp
         1        16        13   ~ i15j12_sp ~ i15j12_sp
         1        16        14   ~ i15j13_sp ~ i15j13_sp
         1        16        15   ~ i15j14_sp ~ i15j14_sp
         1        16        16   ~ i15j15_sp ~ i15j15_sp
         1        16        17   ~ i15j16_sp ~ i15j16_sp
         1        16        18   ~ i15j17_sp ~ i15j17_sp
         1        16        19   ~ i15j18_sp ~ i15j18_sp
         1        16        20   ~ i15j19_sp ~ i15j19_sp
         1        16        21   ~ i15j20_sp ~ i15j20_sp
         1        16        22   ~ i15j21_sp ~ i15j21_sp
         1        16        23   ~ i15j22_sp ~ i15j22_sp
         1        16        24   ~ i15j23_sp ~ i15j23_sp
         1        16        25   ~ i15j24_sp ~ i15j24_sp
         1        16        26   ~ i15j25_sp ~ i15j25_sp
         1        16        27   ~ i15j26_sp ~ i15j26_sp
         1        16        28   ~ i15j27_sp ~ i15j27_sp
         1        16        29   ~ i15j28_sp ~ i15j28_sp
         1        16        30   ~ i15j29_sp ~ i15j29_sp
         1        17         1   ~ i16j00_sp ~ i16j00_sp
         1        17         2   ~ i16j01_sp ~ i16j01_sp
         1        17         3   ~ i16j02_sp ~ i16j02_sp
         1        17         4   ~ i16j03_sp ~ i16j03_sp
         1        17         5   ~ i16j04_sp ~ i16j04_sp
         1        17         6   ~ i16j05_sp ~ i16j05_sp
         1        17         7   ~ i16j06_sp ~ i16j06_sp
         1        17         8   ~ i16j07_sp ~ i16j07_sp
         1        17         9   ~ i16j08_sp ~ i16j08_sp
         1        17        10   ~ i16j09_sp ~ i16j09_sp
         1        17        11   ~ i16j10_sp ~ i16j10_sp
         1        17        12   ~ i16j11_sp ~ i16j11_sp
         1        17        13   ~ i16j12_sp ~ i16j12_sp
         1        17        14   ~ i16j13_sp ~ i16j13_sp
         1        17        15   ~ i16j14_sp ~ i16j14_sp
         1        17        16   ~ i16j15_sp ~ i16j15_sp
         1        17        17   ~ i16j16_sp ~ i16j16_sp
         1        17        18   ~ i16j17_sp ~ i16j17_sp
         1        17        19   ~ i16j18_sp ~ i16j18_sp
         1        17        20   ~ i16j19_sp ~ i16j19_sp
         1        17        21   ~ i16j20_sp ~ i16j20_sp
         1        17        22   ~ i16j21_sp ~ i16j21_sp
         1        17        23   ~ i16j22_sp ~ i16j22_sp
         1        17        24   ~ i16j23_sp ~ i16j23_sp
         1        17        25   ~ i16j24_sp ~ i16j24_sp
         1        17        26   ~ i16j25_sp ~ i16j25_sp
         1        17        27   ~ i16j26_sp ~ i16j26_sp
         1        17        28   ~ i16j27_sp ~ i16j27_sp
         1        17        29   ~ i16j28_sp ~ i16j28_sp
         1        17        30   ~ i16j29_sp ~ i16j29_sp
         1        18         1   ~ i17j00_sp ~ i17j00_sp
         1        18         2   ~ i17j01_sp ~ i17j01_sp
         1        18         3   ~ i17j02_sp ~ i17j02_sp
         1        18         4   ~ i17j03_sp ~ i17j03_sp
         1        18         5   ~ i17j04_sp ~ i17j04_sp
         1        18         6   ~ i17j05_sp ~ i17j05_sp
         1        18         7   ~ i17j06_sp ~ i17j06_sp
         1        18         8   ~ i17j07_sp ~ i17j07_sp
         1        18         9   ~ i17j08_sp ~ i17j08_sp
         1        18        10   ~ i17j09_sp ~ i17j09_sp
         1        18        11   ~ i17j10_sp ~ i17j10_sp
         1        18        12   ~ i17j11_sp ~ i17j11_sp
         1        18        13   ~ i17j12_sp ~ i17j12_sp
         1        18        14   ~ i17j13_sp ~ i17j13_sp
         1        18        15   ~ i17j14_sp ~ i17j14_sp
         1        18        16   ~ i17j15_sp ~ i17j15_sp
         1        18        17   ~ i17j16_sp ~ i17j16_sp
         1        18        18   ~ i17j17_sp ~ i17j17_sp
         1        18        19   ~ i17j18_sp ~ i17j18_sp
         1        18        20   ~ i17j19_sp ~ i17j19_sp
         1        18        21   ~ i17j20_sp ~ i17j20_sp
         1        18        22   ~ i17j21_sp ~ i17j21_sp
         1        18        23   ~ i17j22_sp ~ i17j22_sp
         1        18        24   ~ i17j23_sp ~ i17j23_sp
         1        18        25   ~ i17j24_sp ~ i17j24_sp
         1        18        26   ~ i17j25_sp ~ i17j25_sp
         1        18        27   ~ i17j26_sp ~ i17j26_sp
         1        18        28   ~ i17j27_sp ~ i17j27_sp
         1        18        29   ~ i17j28_sp ~ i17j28_sp
         1        18        30   ~ i17j29_sp ~ i17j29_sp
         1        19         1   ~ i18j00_sp ~ i18j00_sp
         1        19         2   ~ i18j01_sp ~ i18j01_sp
         1        19         3   ~ i18j02_sp ~ i18j02_sp
         1        19         4   ~ i18j03_sp ~ i18j03_sp
         1        19         5   ~ i18j04_sp ~ i18j04_sp
         1        19         6   ~ i18j05_sp ~ i18j05_sp
         1        19         7   ~ i18j06_sp ~ i18j06_sp
         1        19         8   ~ i18j07_sp ~ i18j07_sp
         1        19         9   ~ i18j08_sp ~ i18j08_sp
         1        19        10   ~ i18j09_sp ~ i18j09_sp
         1        19        11   ~ i18j10_sp ~ i18j10_sp
         1        19        12   ~ i18j11_sp ~ i18j11_sp
         1        19        13   ~ i18j12_sp ~ i18j12_sp
         1        19        14   ~ i18j13_sp ~ i18j13_sp