# WEL package for  MODFLOW-2005, generated by Flopy.
       690         0
       690         0 # stress period 0
         1         2         1   0.0000000E+00 i01j00_sp
         1         2         2   0.0000000E+00 i01j01_sp
         1         2         3   0.0000000E+00 i01j02_sp
         1         2         4   0.0000000E+00 i01j03_sp
         1         2         5   0.0000000E+00 i01j04_sp
         1         2         6   0.0000000E+00 i01j05_sp
         1         2         7   0.0000000E+00 i01j06_sp
         1         2         8   0.0000000E+00 i01j07_sp
         1         2         9   0.0000000E+00 i01j08_sp
         1         2        10   0.0000000E+00 i01j09_sp
         1         2        11   0.0000000E+00 i01j10_sp
         1         2        12   0.0000000E+00 i01j11_sp
         1         2        13   0.0000000E+00 i01j12_sp
         1         2        14   0.0000000E+00 i01j13_sp
         1         2        15   0.0000000E+00 i01j14_sp
         1         2        16   0.0000000E+00 i01j15_sp
         1         2        17   0.0000000E+00 i01j16_sp
         1         2        18   0.0000000E+00 i01j17_sp
         1         2        19   0.0000000E+00 i01j18_sp
         1         2        20   0.0000000E+00 i01j19_sp
         1         2        21   0.0000000E+00 i01j20_sp
         1         2        22   0.0000000E+00 i01j21_sp
         1         2        23   0.0000000E+00 i01j22_sp
         1         2        24   0.0000000E+00 i01j23_sp
         1         2        25   0.0000000E+00 i01j24_sp
         1         2        26   0.0000000E+00 i01j25_sp
         1         2        27   0.0000000E+00 i01j26_sp
         1         2        28   0.0000000E+00 i01j27_sp
         1         2        29   0.0000000E+00 i01j28_sp
         1         2        30   0.0000000E+00 i01j29_sp
         1         3         1   0.0000000E+00 i02j00_sp
         1         3         2   0.0000000E+00 i02j01_sp
         1         3         3   0.0000000E+00 i02j02_sp
         1         3         4   0.0000000E+00 i02j03_sp
         1         3         5   0.0000000E+00 i02j04_sp
         1         3         6   0.0000000E+00 i02j05_sp
         1         3         7   0.0000000E+00 i02j06_sp
         1         3         8   0.0000000E+00 i02j07_sp
         1         3         9   0.0000000E+00 i02j08_sp
         1         3        10   0.0000000E+00 i02j09_sp
         1         3        11   0.0000000E+00 i02j10_sp
         1         3        12   0.0000000E+00 i02j11_sp
         1         3        13   0.0000000E+00 i02j12_sp
         1         3        14   0.0000000E+00 i02j13_sp
         1         3        15   0.0000000E+00 i02j14_sp
         1         3        16   0.0000000E+00 i02j15_sp
         1         3        17   0.0000000E+00 i02j16_sp
         1         3        18   0.0000000E+00 i02j17_sp
         1         3        19   0.0000000E+00 i02j18_sp
         1         3        20   0.0000000E+00 i02j19_sp
         1         3        21   0.0000000E+00 i02j20_sp
         1         3        22   0.0000000E+00 i02j21_sp
         1         3        23   0.0000000E+00 i02j22_sp
         1         3        24   0.0000000E+00 i02j23_sp
         1         3        25   0.0000000E+00 i02j24_sp
         1         3        26   0.0000000E+00 i02j25_sp
         1         3        27   0.0000000E+00 i02j26_sp
         1         3        28   0.0000000E+00 i02j27_sp
         1         3        29   0.0000000E+00 i02j28_sp
         1         3        30   0.0000000E+00 i02j29_sp
         1         4         1   0.0000000E+00 i03j00_sp
         1         4         2   0.0000000E+00 i03j01_sp
         1         4         3   0.0000000E+00 i03j02_sp
         1         4         4   0.0000000E+00 i03j03_sp
         1         4         5   0.0000000E+00 i03j04_sp
         1         4         6   0.0000000E+00 i03j05_sp
         1         4         7   0.0000000E+00 i03j06_sp
         1         4         8   0.0000000E+00 i03j07_sp
         1         4         9   0.0000000E+00 i03j08_sp
         1         4        10   0.0000000E+00 i03j09_sp
         1         4        11   0.0000000E+00 i03j10_sp
         1         4        12   0.0000000E+00 i03j11_sp
         1         4        13   0.0000000E+00 i03j12_sp
         1         4        14   0.0000000E+00 i03j13_sp
         1         4        15   0.0000000E+00 i03j14_sp
         1         4        16   0.0000000E+00 i03j15_sp
         1         4        17   0.0000000E+00 i03j16_sp
         1         4        18   0.0000000E+00 i03j17_sp
         1         4        19   0.0000000E+00 i03j18_sp
         1         4        20   0.0000000E+00 i03j19_sp
         1         4        21   0.0000000E+00 i03j20_sp
         1         4        22   0.0000000E+00 i03j21_sp
         1         4        23   0.0000000E+00 i03j22_sp
         1         4        24   0.0000000E+00 i03j23_sp
         1         4        25   0.0000000E+00 i03j24_sp
         1         4        26   0.0000000E+00 i03j25_sp
         1         4        27   0.0000000E+00 i03j26_sp
         1         4        28   0.0000000E+00 i03j27_sp
         1         4        29   0.0000000E+00 i03j28_sp
         1         4        30   0.0000000E+00 i03j29_sp
         1         5         1   0.0000000E+00 i04j00_sp
         1         5         2   0.0000000E+00 i04j01_sp
         1         5         3   0.0000000E+00 i04j02_sp
         1         5         4   0.0000000E+00 i04j03_sp
         1         5         5   0.0000000E+00 i04j04_sp
         1         5         6   0.0000000E+00 i04j05_sp
         1         5         7   0.0000000E+00 i04j06_sp
         1         5         8   0.0000000E+00 i04j07_sp
         1         5         9   0.0000000E+00 i04j08_sp
         1         5        10   0.0000000E+00 i04j09_sp
         1         5        11   0.0000000E+00 i04j10_sp
         1         5        12   0.0000000E+00 i04j11_sp
         1         5        13   0.0000000E+00 i04j12_sp
         1         5        14   0.0000000E+00 i04j13_sp
         1         5        15   0.0000000E+00 i04j14_sp
         1         5        16   0.0000000E+00 i04j15_sp
         1         5        17   0.0000000E+00 i04j16_sp
         1         5        18   0.0000000E+00 i04j17_sp
         1         5        19   0.0000000E+00 i04j18_sp
         1         5        20   0.0000000E+00 i04j19_sp
         1         5        21   0.0000000E+00 i04j20_sp
         1         5        22   0.0000000E+00 i04j21_sp
         1         5        23   0.0000000E+00 i04j22_sp
         1         5        24   0.0000000E+00 i04j23_sp
         1         5        25   0.0000000E+00 i04j24_sp
         1         5        26   0.0000000E+00 i04j25_sp
         1         5        27   0.0000000E+00 i04j26_sp
         1         5        28   0.0000000E+00 i04j27_sp
         1         5        29   0.0000000E+00 i04j28_sp
         1         5        30   0.0000000E+00 i04j29_sp
         1         6         1   0.0000000E+00 i05j00_sp
         1         6         2   0.0000000E+00 i05j01_sp
         1         6         3   0.0000000E+00 i05j02_sp
         1         6         4   0.0000000E+00 i05j03_sp
         1         6         5   0.0000000E+00 i05j04_sp
         1         6         6   0.0000000E+00 i05j05_sp
         1         6         7   0.0000000E+00 i05j06_sp
         1         6         8   0.0000000E+00 i05j07_sp
         1         6         9   0.0000000E+00 i05j08_sp
         1         6        10   0.0000000E+00 i05j09_sp
         1         6        11   0.0000000E+00 i05j10_sp
         1         6        12   0.0000000E+00 i05j11_sp
         1         6        13   0.0000000E+00 i05j12_sp
         1         6        14   0.0000000E+00 i05j13_sp
         1         6        15   0.0000000E+00 i05j14_sp
         1         6        16   0.0000000E+00 i05j15_sp
         1         6        17   0.0000000E+00 i05j16_sp
         1         6        18   0.0000000E+00 i05j17_sp
         1         6        19   0.0000000E+00 i05j18_sp
         1         6        20   0.0000000E+00 i05j19_sp
         1         6        21   0.0000000E+00 i05j20_sp
         1         6        22   0.0000000E+00 i05j21_sp
         1         6        23   0.0000000E+00 i05j22_sp
         1         6        24   0.0000000E+00 i05j23_sp
         1         6        25   0.0000000E+00 i05j24_sp
         1         6        26   0.0000000E+00 i05j25_sp
         1         6        27   0.0000000E+00 i05j26_sp
         1         6        28   0.0000000E+00 i05j27_sp
         1         6        29   0.0000000E+00 i05j28_sp
         1         6        30   0.0000000E+00 i05j29_sp
         1         7         1   0.0000000E+00 i06j00_sp
         1         7         2   0.0000000E+00 i06j01_sp
         1         7         3   0.0000000E+00 i06j02_sp
         1         7         4   0.0000000E+00 i06j03_sp
         1         7         5   0.0000000E+00 i06j04_sp
         1         7         6   0.0000000E+00 i06j05_sp
         1         7         7   0.0000000E+00 i06j06_sp
         1         7         8   0.0000000E+00 i06j07_sp
         1         7         9   0.0000000E+00 i06j08_sp
         1         7        10   0.0000000E+00 i06j09_sp
         1         7        11   0.0000000E+00 i06j10_sp
         1         7        12   0.0000000E+00 i06j11_sp
         1         7        13   0.0000000E+00 i06j12_sp
         1         7        14   0.0000000E+00 i06j13_sp
         1         7        15   0.0000000E+00 i06j14_sp
         1         7        16   0.0000000E+00 i06j15_sp
         1         7        17   0.0000000E+00 i06j16_sp
         1         7        18   0.0000000E+00 i06j17_sp
         1         7        19   0.0000000E+00 i06j18_sp
         1         7        20   0.0000000E+00 i06j19_sp
         1         7        21   0.0000000E+00 i06j20_sp
         1         7        22   0.0000000E+00 i06j21_sp
         1         7        23   0.0000000E+00 i06j22_sp
         1         7        24   0.0000000E+00 i06j23_sp
         1         7        25   0.0000000E+00 i06j24_sp
         1         7        26   0.0000000E+00 i06j25_sp
         1         7        27   0.0000000E+00 i06j26_sp
         1         7        28   0.0000000E+00 i06j27_sp
         1         7        29   0.0000000E+00 i06j28_sp
         1         7        30   0.0000000E+00 i06j29_sp
         1         8         1   0.0000000E+00 i07j00_sp
         1         8         2   0.0000000E+00 i07j01_sp
         1         8         3   0.0000000E+00 i07j02_sp
         1         8         4   0.0000000E+00 i07j03_sp
         1         8         5   0.0000000E+00 i07j04_sp
         1         8         6   0.0000000E+00 i07j05_sp
         1         8         7   0.0000000E+00 i07j06_sp
         1         8         8   0.0000000E+00 i07j07_sp
         1         8         9   0.0000000E+00 i07j08_sp
         1         8        10   0.0000000E+00 i07j09_sp
         1         8        11   0.0000000E+00 i07j10_sp
         1         8        12   0.0000000E+00 i07j11_sp
         1         8        13   0.0000000E+00 i07j12_sp
         1         8        14   0.0000000E+00 i07j13_sp
         1         8        15   0.0000000E+00 i07j14_sp
         1         8        16   0.0000000E+00 i07j15_sp
         1         8        17   0.0000000E+00 i07j16_sp
         1         8        18   0.0000000E+00 i07j17_sp
         1         8        19   0.0000000E+00 i07j18_sp
         1         8        20   0.0000000E+00 i07j19_sp
         1         8        21   0.0000000E+00 i07j20_sp
         1         8        22   0.0000000E+00 i07j21_sp
         1         8        23   0.0000000E+00 i07j22_sp
         1         8        24   0.0000000E+00 i07j23_sp
         1         8        25   0.0000000E+00 i07j24_sp
         1         8        26   0.0000000E+00 i07j25_sp
         1         8        27   0.0000000E+00 i07j26_sp
         1         8        28   0.0000000E+00 i07j27_sp
         1         8        29   0.0000000E+00 i07j28_sp
         1         8        30   0.0000000E+00 i07j29_sp
         1         9         1   0.0000000E+00 i08j00_sp
         1         9         2   0.0000000E+00 i08j01_sp
         1         9         3   0.0000000E+00 i08j02_sp
         1         9         4   0.0000000E+00 i08j03_sp
         1         9         5   0.0000000E+00 i08j04_sp
         1         9         6   0.0000000E+00 i08j05_sp
         1         9         7   0.0000000E+00 i08j06_sp
         1         9         8   0.0000000E+00 i08j07_sp
         1         9         9   0.0000000E+00 i08j08_sp
         1         9        10   0.0000000E+00 i08j09_sp
         1         9        11   0.0000000E+00 i08j10_sp
         1         9        12   0.0000000E+00 i08j11_sp
         1         9        13   0.0000000E+00 i08j12_sp
         1         9        14   0.0000000E+00 i08j13_sp
         1         9        15   0.0000000E+00 i08j14_sp
         1         9        16   0.0000000E+00 i08j15_sp
         1         9        17   0.0000000E+00 i08j16_sp
         1         9        18   0.0000000E+00 i08j17_sp
         1         9        19   0.0000000E+00 i08j18_sp
         1         9        20   0.0000000E+00 i08j19_sp
         1         9        21   0.0000000E+00 i08j20_sp
         1         9        22   0.0000000E+00 i08j21_sp
         1         9        23   0.0000000E+00 i08j22_sp
         1         9        24   0.0000000E+00 i08j23_sp
         1         9        25   0.0000000E+00 i08j24_sp
         1         9        26   0.0000000E+00 i08j25_sp
         1         9        27   0.0000000E+00 i08j26_sp
         1         9        28   0.0000000E+00 i08j27_sp
         1         9        29   0.0000000E+00 i08j28_sp
         1         9        30   0.0000000E+00 i08j29_sp
         1        10         1   0.0000000E+00 i09j00_sp
         1        10         2   0.0000000E+00 i09j01_sp
         1        10         3   0.0000000E+00 i09j02_sp
         1        10         4   0.0000000E+00 i09j03_sp
         1        10         5   0.0000000E+00 i09j04_sp
         1        10         6   0.0000000E+00 i09j05_sp
         1        10         7   0.0000000E+00 i09j06_sp
         1        10         8   0.0000000E+00 i09j07_sp
         1        10         9   0.0000000E+00 i09j08_sp
         1        10        10   0.0000000E+00 i09j09_sp
         1        10        11   0.0000000E+00 i09j10_sp
         1        10        12   0.0000000E+00 i09j11_sp
         1        10        13   0.0000000E+00 i09j12_sp
         1        10        14   0.0000000E+00 i09j13_sp
         1        10        15   0.0000000E+00 i09j14_sp
         1        10        16   0.0000000E+00 i09j15_sp
         1        10        17   0.0000000E+00 i09j16_sp
         1        10        18   0.0000000E+00 i09j17_sp
         1        10        19   0.0000000E+00 i09j18_sp
         1        10        20   0.0000000E+00 i09j19_sp
         1        10        21   0.0000000E+00 i09j20_sp
         1        10        22   0.0000000E+00 i09j21_sp
         1        10        23   0.0000000E+00 i09j22_sp
         1        10        24   0.0000000E+00 i09j23_sp
         1        10        25   0.0000000E+00 i09j24_sp
         1        10        26   0.0000000E+00 i09j25_sp
         1        10        27   0.0000000E+00 i09j26_sp
         1        10        28   0.0000000E+00 i09j27_sp
         1        10        29   0.0000000E+00 i09j28_sp
         1        10        30   0.0000000E+00 i09j29_sp
         1        11         1   0.0000000E+00 i10j00_sp
         1        11         2   0.0000000E+00 i10j01_sp
         1        11         3   0.0000000E+00 i10j02_sp
         1        11         4   0.0000000E+00 i10j03_sp
         1        11         5   0.0000000E+00 i10j04_sp
         1        11         6   0.0000000E+00 i10j05_sp
         1        11         7   0.0000000E+00 i10j06_sp
         1        11         8   0.0000000E+00 i10j07_sp
         1        11         9   0.0000000E+00 i10j08_sp
         1        11        10   0.0000000E+00 i10j09_sp
         1        11        11   0.0000000E+00 i10j10_sp
         1        11        12   0.0000000E+00 i10j11_sp
         1        11        13   0.0000000E+00 i10j12_sp
         1        11        14   0.0000000E+00 i10j13_sp
         1        11        15   0.0000000E+00 i10j14_sp
         1        11        16   0.0000000E+00 i10j15_sp
         1        11        17   0.0000000E+00 i10j16_sp
         1        11        18   0.0000000E+00 i10j17_sp
         1        11        19   0.0000000E+00 i10j18_sp
         1        11        20   0.0000000E+00 i10j19_sp
         1        11        21   0.0000000E+00 i10j20_sp
         1        11        22   0.0000000E+00 i10j21_sp
         1        11        23   0.0000000E+00 i10j22_sp
         1        11        24   0.0000000E+00 i10j23_sp
         1        11        25   0.0000000E+00 i10j24_sp
         1        11        26   0.0000000E+00 i10j25_sp
         1        11        27   0.0000000E+00 i10j26_sp
         1        11        28   0.0000000E+00 i10j27_sp
         1        11        29   0.0000000E+00 i10j28_sp
         1        11        30   0.0000000E+00 i10j29_sp
         1        12         1   0.0000000E+00 i11j00_sp
         1        12         2   0.0000000E+00 i11j01_sp
         1        12         3   0.0000000E+00 i11j02_sp
         1        12         4   0.0000000E+00 i11j03_sp
         1        12         5   0.0000000E+00 i11j04_sp
         1        12         6   0.0000000E+00 i11j05_sp
         1        12         7   0.0000000E+00 i11j06_sp
         1        12         8   0.0000000E+00 i11j07_sp
         1        12         9   0.0000000E+00 i11j08_sp
         1        12        10   0.0000000E+00 i11j09_sp
         1        12        11   0.0000000E+00 i11j10_sp
         1        12        12   0.0000000E+00 i11j11_sp
         1        12        13   0.0000000E+00 i11j12_sp
         1        12        14   0.0000000E+00 i11j13_sp
         1        12        15   0.0000000E+00 i11j14_sp
         1        12        16   0.0000000E+00 i11j15_sp
         1        12        17   0.0000000E+00 i11j16_sp
         1        12        18   0.0000000E+00 i11j17_sp
         1        12        19   0.0000000E+00 i11j18_sp
         1        12        20   0.0000000E+00 i11j19_sp
         1        12        21   0.0000000E+00 i11j20_sp
         1        12        22   0.0000000E+00 i11j21_sp
         1        12        23   0.0000000E+00 i11j22_sp
         1        12        24   0.0000000E+00 i11j23_sp
         1        12        25   0.0000000E+00 i11j24_sp
         1        12        26   0.0000000E+00 i11j25_sp
         1        12        27   0.0000000E+00 i11j26_sp
         1        12        28   0.0000000E+00 i11j27_sp
         1        12        29   0.0000000E+00 i11j28_sp
         1        12        30   0.0000000E+00 i11j29_sp
         1        13         1   0.0000000E+00 i12j00_sp
         1        13         2   0.0000000E+00 i12j01_sp
         1        13         3   0.0000000E+00 i12j02_sp
         1        13         4   0.0000000E+00 i12j03_sp
         1        13         5   0.0000000E+00 i12j04_sp
         1        13         6   0.0000000E+00 i12j05_sp
         1        13         7   0.0000000E+00 i12j06_sp
         1        13         8   0.0000000E+00 i12j07_sp
         1        13         9   0.0000000E+00 i12j08_sp
         1        13        10   0.0000000E+00 i12j09_sp
         1        13        11   0.0000000E+00 i12j10_sp
         1        13        12   0.0000000E+00 i12j11_sp
         1        13        13   0.0000000E+00 i12j12_sp
         1        13        14   0.0000000E+00 i12j13_sp
         1        13        15   0.0000000E+00 i12j14_sp
         1        13        16   0.0000000E+00 i12j15_sp
         1        13        17   0.0000000E+00 i12j16_sp
         1        13        18   0.0000000E+00 i12j17_sp
         1        13        19   0.0000000E+00 i12j18_sp
         1        13        20   0.0000000E+00 i12j19_sp
         1        13        21   0.0000000E+00 i12j20_sp
         1        13        22   0.0000000E+00 i12j21_sp
         1        13        23   0.0000000E+00 i12j22_sp
         1        13        24   0.0000000E+00 i12j23_sp
         1        13        25   0.0000000E+00 i12j24_sp
         1        13        26   0.0000000E+00 i12j25_sp
         1        13        27   0.0000000E+00 i12j26_sp
         1        13        28   0.0000000E+00 i12j27_sp
         1        13        29   0.0000000E+00 i12j28_sp
         1        13        30   0.0000000E+00 i12j29_sp
         1        14         1   0.0000000E+00 i13j00_sp
         1        14         2   0.0000000E+00 i13j01_sp
         1        14         3   0.0000000E+00 i13j02_sp
         1        14         4   0.0000000E+00 i13j03_sp
         1        14         5   0.0000000E+00 i13j04_sp
         1        14         6   0.0000000E+00 i13j05_sp
         1        14         7   0.0000000E+00 i13j06_sp
         1        14         8   0.0000000E+00 i13j07_sp
         1        14         9   0.0000000E+00 i13j08_sp
         1        14        10   0.0000000E+00 i13j09_sp
         1        14        11   0.0000000E+00 i13j10_sp
         1        14        12   0.0000000E+00 i13j11_sp
         1        14        13   0.0000000E+00 i13j12_sp
         1        14        14   0.0000000E+00 i13j13_sp
         1        14        15   0.0000000E+00 i13j14_sp
         1        14        16   0.0000000E+00 i13j15_sp
         1        14        17   0.0000000E+00 i13j16_sp
         1        14        18   0.0000000E+00 i13j17_sp
         1        14        19   0.0000000E+00 i13j18_sp
         1        14        20   0.0000000E+00 i13j19_sp
         1        14        21   0.0000000E+00 i13j20_sp
         1        14        22   0.0000000E+00 i13j21_sp
         1        14        23   0.0000000E+00 i13j22_sp
         1        14        24   0.0000000E+00 i13j23_sp
         1        14        25   0.0000000E+00 i13j24_sp
         1        14        26   0.0000000E+00 i13j25_sp
         1        14        27   0.0000000E+00 i13j26_sp
         1        14        28   0.0000000E+00 i13j27_sp
         1        14        29   0.0000000E+00 i13j28_sp
         1        14        30   0.0000000E+00 i13j29_sp
         1        15         1   0.0000000E+00 i14j00_sp
         1        15         2   0.0000000E+00 i14j01_sp
         1        15         3   0.0000000E+00 i14j02_sp
         1        15         4   0.0000000E+00 i14j03_sp
         1        15         5   0.0000000E+00 i14j04_sp
         1        15         6   0.0000000E+00 i14j05_sp
         1        15         7   0.0000000E+00 i14j06_sp
         1        15         8   0.0000000E+00 i14j07_sp
         1        15         9   0.0000000E+00 i14j08_sp
         1        15        10   0.0000000E+00 i14j09_sp
         1        15        11   0.0000000E+00 i14j10_sp
         1        15        12   0.0000000E+00 i14j11_sp
         1        15        13   0.0000000E+00 i14j12_sp
         1        15        14   0.0000000E+00 i14j13_sp
         1        15        15   0.0000000E+00 i14j14_sp
         1        15        16   0.0000000E+00 i14j15_sp
         1        15        17   0.0000000E+00 i14j16_sp
         1        15        18   0.0000000E+00 i14j17_sp
         1        15        19   0.0000000E+00 i14j18_sp
         1        15        20   0.0000000E+00 i14j19_sp
         1        15        21   0.0000000E+00 i14j20_sp
         1        15        22   0.0000000E+00 i14j21_sp
         1        15        23   0.0000000E+00 i14j22_sp
         1        15        24   0.0000000E+00 i14j23_sp
         1        15        25   0.0000000E+00 i14j24_sp
         1        15        26   0.0000000E+00 i14j25_sp
         1        15        27   0.0000000E+00 i14j26_sp
         1        15        28   0.0000000E+00 i14j27_sp
         1        15        29   0.0000000E+00 i14j28_sp
         1        15        30   0.0000000E+00 i14j29_sp
         1        16         1   0.0000000E+00 i15j00_sp
         1        16         2   0.0000000E+00 i15j01_sp
         1        16         3   0.0000000E+00 i15j02_sp
         1        16         4   0.0000000E+00 i15j03_sp
         1        16         5   0.0000000E+00 i15j04_sp
         1        16         6   0.0000000E+00 i15j05_sp
         1        16         7   0.0000000E+00 i15j06_sp
         1        16         8   0.0000000E+00 i15j07_sp
         1        16         9   0.0000000E+00 i15j08_sp
         1        16        10   0.0000000E+00 i15j09_sp
         1        16        11   0.0000000E+00 i15j10_sp
         1        16        12   0.0000000E+00 i15j11_sp
         1        16        13   0.0000000E+00 i15j12_sp
         1        16        14   0.0000000E+00 i15j13_sp
         1        16        15   0.0000000E+00 i15j14_sp
         1        16        16   0.0000000E+00 i15j15_sp
         1        16        17   0.0000000E+00 i15j16_sp
         1        16        18   0.0000000E+00 i15j17_sp
         1        16        19   0.0000000E+00 i15j18_sp
         1        16        20   0.0000000E+00 i15j19_sp
         1        16        21   0.0000000E+00 i15j20_sp
         1        16        22   0.0000000E+00 i15j21_sp
         1        16        23   0.0000000E+00 i15j22_sp
         1        16        24   0.0000000E+00 i15j23_sp
         1        16        25   0.0000000E+00 i15j24_sp
         1        16        26   0.0000000E+00 i15j25_sp
         1        16        27   0.0000000E+00 i15j26_sp
         1        16        28   0.0000000E+00 i15j27_sp
         1        16        29   0.0000000E+00 i15j28_sp
         1        16        30   0.0000000E+00 i15j29_sp
         1        17         1   0.0000000E+00 i16j00_sp
         1        17         2   0.0000000E+00 i16j01_sp
         1        17         3   0.0000000E+00 i16j02_sp
         1        17         4   0.0000000E+00 i16j03_sp
         1        17         5   0.0000000E+00 i16j04_sp
         1        17         6   0.0000000E+00 i16j05_sp
         1        17         7   0.0000000E+00 i16j06_sp
         1        17         8   0.0000000E+00 i16j07_sp
         1        17         9   0.0000000E+00 i16j08_sp
         1        17        10   0.0000000E+00 i16j09_sp
         1        17        11   0.0000000E+00 i16j10_sp
         1        17        12   0.0000000E+00 i16j11_sp
         1        17        13   0.0000000E+00 i16j12_sp
         1        17        14   0.0000000E+00 i16j13_sp
         1        17        15   0.0000000E+00 i16j14_sp
         1        17        16   0.0000000E+00 i16j15_sp
         1        17        17   0.0000000E+00 i16j16_sp
         1        17        18   0.0000000E+00 i16j17_sp
         1        17        19   0.0000000E+00 i16j18_sp
         1        17        20   0.0000000E+00 i16j19_sp
         1        17        21   0.0000000E+00 i16j20_sp
         1        17        22   0.0000000E+00 i16j21_sp
         1        17        23   0.0000000E+00 i16j22_sp
         1        17        24   0.0000000E+00 i16j23_sp
         1        17        25   0.0000000E+00 i16j24_sp
         1        17        26   0.0000000E+00 i16j25_sp
         1        17        27   0.0000000E+00 i16j26_sp
         1        17        28   0.0000000E+00 i16j27_sp
         1        17        29   0.0000000E+00 i16j28_sp
         1        17        30   0.0000000E+00 i16j29_sp
         1        18         1   0.0000000E+00 i17j00_sp
         1        18         2   0.0000000E+00 i17j01_sp
         1        18         3   0.0000000E+00 i17j02_sp
         1        18         4   0.0000000E+00 i17j03_sp
         1        18         5   0.0000000E+00 i17j04_sp
         1        18         6   0.0000000E+00 i17j05_sp
         1        18         7   0.0000000E+00 i17j06_sp
         1        18         8   0.0000000E+00 i17j07_sp
         1        18         9   0.0000000E+00 i17j08_sp
         1        18        10   0.0000000E+00 i17j09_sp
         1        18        11   0.0000000E+00 i17j10_sp
         1        18        12   0.0000000E+00 i17j11_sp
         1        18        13   0.0000000E+00 i17j12_sp
         1        18        14   0.0000000E+00 i17j13_sp
         1        18        15   0.0000000E+00 i17j14_sp
         1        18        16   0.0000000E+00 i17j15_sp
         1        18        17   0.0000000E+00 i17j16_sp
         1        18        18   0.0000000E+00 i17j17_sp
         1        18        19   0.0000000E+00 i17j18_sp
         1        18        20   0.0000000E+00 i17j19_sp
         1        18        21   0.0000000E+00 i17j20_sp
         1        18        22   0.0000000E+00 i17j21_sp
         1        18        23   0.0000000E+00 i17j22_sp
         1        18        24   0.0000000E+00 i17j23_sp
         1        18        25   0.0000000E+00 i17j24_sp
         1        18        26   0.0000000E+00 i17j25_sp
         1        18        27   0.0000000E+00 i17j26_sp
         1        18        28   0.0000000E+00 i17j27_sp
         1        18        29   0.0000000E+00 i17j28_sp
         1        18        30   0.0000000E+00 i17j29_sp
         1        19         1   0.0000000E+00 i18j00_sp
         1        19         2   0.0000000E+00 i18j01_sp
         1        19         3   0.0000000E+00 i18j02_sp
         1        19         4   0.0000000E+00 i18j03_sp
         1        19         5   0.0000000E+00 i18j04_sp
         1        19         6   0.0000000E+00 i18j05_sp
         1        19         7   0.0000000E+00 i18j06_sp
         1        19         8   0.0000000E+00 i18j07_sp
         1        19         9   0.0000000E+00 i18j08_sp
         1        19        10   0.0000000E+00 i18j09_sp
         1        19        11   0.0000000E+00 i18j10_sp
         1        19        12   0.0000000E+00 i18j11_sp
         1        19        13   0.0000000E+00 i18j12_sp
         1        19        14   0.0000000E+00 i18j13_sp