pcf
* control data
             restart          estimation
        11       480         2        25         5         0
         2         1              single               point         1         0         0          noobsreref
   2.000000E+01  -3.000000E+00   3.000000E-01   1.000000E-02        -7       999          lamforgive        noderforgive
   1.000000E+01   1.000000E+01   1.000000E-03         0         0
   1.000000E-01         1   1.100000E+00               noaui          nosenreuse        noboundscale
        30   1.000000E-02         3         3   1.000000E-02         3   0.000000E+00         1  -1.000000E+00
         0         0         0         0             jcosave          verboserec          jcosaveitn          reisaveitn          parsaveitn        noparsaverun
* singular value decomposition
1
11    1.000000E-06
1 1 1
* parameter groups
pumping                 absolute           5000      100  switch                2.0000000000E+00       parabolic             1.0000000000E-05      5.0000000000E-01       smaller              
external                relative           0.1      100  switch                2.0000000000E+00       parabolic             1.0000000000E-05      5.0000000000E-01       smaller
* parameter data
im10                   none                   factor                0.0000000000E+00      0.0000000000E+00      1.0000000000E+06       external              -1.0000000000E+00     0.0000000000E+00      1          
im11                   none                   factor                0.0000000000E+00      0.0000000000E+00      1.0000000000E+06       external              -1.0000000000E+00     0.0000000000E+00      1          
im12                   none                   factor                0.0000000000E+00      0.0000000000E+00      1.0000000000E+06       external              -1.0000000000E+00     0.0000000000E+00      1          
im9                    none                   factor                0.0000000000E+00      0.0000000000E+00      1.0000000000E+06       external              -1.0000000000E+00     0.0000000000E+00      1          
q1                     none                   factor                0.0000000000E+00      0.0000000000E+00      5.0000000000E+04       pumping               -1.0000000000E+00     0.0000000000E+00      1          
q2a                    none                   factor                0.0000000000E+00      0.0000000000E+00      5.0000000000E+04       pumping               -1.0000000000E+00     0.0000000000E+00      1          
q2b                    none                   factor                0.0000000000E+00      0.0000000000E+00      5.0000000000E+04       pumping               -1.0000000000E+00     0.0000000000E+00      1          
q2c                    none                   factor                0.0000000000E+00      0.0000000000E+00      5.0000000000E+04       pumping               -1.0000000000E+00     0.0000000000E+00      1          
q2d                    none                   factor                0.0000000000E+00      0.0000000000E+00      5.0000000000E+04       pumping               -1.0000000000E+00     0.0000000000E+00      1          
q4a                    none                   factor                0.0000000000E+00      0.0000000000E+00      5.0000000000E+04       pumping               -1.0000000000E+00     0.0000000000E+00      1          
q4b                    none                   factor                0.0000000000E+00      0.0000000000E+00      5.0000000000E+04       pumping               -1.0000000000E+00     0.0000000000E+00      1
* observation groups
less_obs             
extra                
greater_pi           
less_pi              
obj_func             
* observation data
s1r01_01              0.0000000000E+00      0.0000000000E+00       extra                
s1r01_02              0.0000000000E+00      0.0000000000E+00       extra                
s1r01_03              0.0000000000E+00      0.0000000000E+00       extra                
s1r01_04              0.0000000000E+00      0.0000000000E+00       extra                
s1r01_05              0.0000000000E+00      0.0000000000E+00       extra                
s1r01_06              0.0000000000E+00      0.0000000000E+00       extra                
s1r01_07              0.0000000000E+00      0.0000000000E+00       extra                
s1r01_08              0.0000000000E+00      0.0000000000E+00       extra                
s1r01_09              0.0000000000E+00      0.0000000000E+00       extra                
s1r01_10              0.0000000000E+00      0.0000000000E+00       extra                
s1r01_11              0.0000000000E+00      0.0000000000E+00       extra                
s1r01_12              0.0000000000E+00      0.0000000000E+00       extra                
s1r02_01              0.0000000000E+00      0.0000000000E+00       extra                
s1r02_02              0.0000000000E+00      0.0000000000E+00       extra                
s1r02_03              0.0000000000E+00      0.0000000000E+00       extra                
s1r02_04              0.0000000000E+00      0.0000000000E+00       extra                
s1r02_05              0.0000000000E+00      0.0000000000E+00       extra                
s1r02_06              0.0000000000E+00      0.0000000000E+00       extra                
s1r02_07              0.0000000000E+00      0.0000000000E+00       extra                
s1r02_08              0.0000000000E+00      0.0000000000E+00       extra                
s1r02_09              0.0000000000E+00      0.0000000000E+00       extra                
s1r02_10              0.0000000000E+00      0.0000000000E+00       extra                
s1r02_11              0.0000000000E+00      0.0000000000E+00       extra                
s1r02_12              0.0000000000E+00      0.0000000000E+00       extra                
s1r03_01              0.0000000000E+00      0.0000000000E+00       extra                
s1r03_02              0.0000000000E+00      0.0000000000E+00       extra                
s1r03_03              0.0000000000E+00      0.0000000000E+00       extra                
s1r03_04              0.0000000000E+00      0.0000000000E+00       extra                
s1r03_05              0.0000000000E+00      0.0000000000E+00       extra                
s1r03_06              0.0000000000E+00      0.0000000000E+00       extra                
s1r03_07              0.0000000000E+00      0.0000000000E+00       extra                
s1r03_08              0.0000000000E+00      0.0000000000E+00       extra                
s1r03_09              0.0000000000E+00      0.0000000000E+00       extra                
s1r03_10              0.0000000000E+00      0.0000000000E+00       extra                
s1r03_11              0.0000000000E+00      0.0000000000E+00       extra                
s1r03_12              0.0000000000E+00      0.0000000000E+00       extra                
s1r04_01              0.0000000000E+00      0.0000000000E+00       extra                
s1r04_02              0.0000000000E+00      0.0000000000E+00       extra                
s1r04_03              0.0000000000E+00      0.0000000000E+00       extra                
s1r04_04              0.0000000000E+00      0.0000000000E+00       extra                
s1r04_05              0.0000000000E+00      0.0000000000E+00       extra                
s1r04_06              0.0000000000E+00      0.0000000000E+00       extra                
s1r04_07              0.0000000000E+00      0.0000000000E+00       extra                
s1r04_08              0.0000000000E+00      0.0000000000E+00       extra                
s1r04_09              0.0000000000E+00      0.0000000000E+00       extra                
s1r04_10              0.0000000000E+00      0.0000000000E+00       extra                
s1r04_11              0.0000000000E+00      0.0000000000E+00       extra                
s1r04_12              0.0000000000E+00      0.0000000000E+00       extra                
s1r05_01              0.0000000000E+00      0.0000000000E+00       extra                
s1r05_02              0.0000000000E+00      0.0000000000E+00       extra                
s1r05_03              0.0000000000E+00      0.0000000000E+00       extra                
s1r05_04              0.0000000000E+00      0.0000000000E+00       extra                
s1r05_05              0.0000000000E+00      0.0000000000E+00       extra                
s1r05_06              0.0000000000E+00      0.0000000000E+00       extra                
s1r05_07              0.0000000000E+00      0.0000000000E+00       extra                
s1r05_08              0.0000000000E+00      0.0000000000E+00       extra                
s1r05_09              0.0000000000E+00      0.0000000000E+00       extra                
s1r05_10              0.0000000000E+00      0.0000000000E+00       extra                
s1r05_11              0.0000000000E+00      0.0000000000E+00       extra                
s1r05_12              0.0000000000E+00      0.0000000000E+00       extra                
s1r06_01              0.0000000000E+00      0.0000000000E+00       extra                
s1r06_02              0.0000000000E+00      0.0000000000E+00       extra                
s1r06_03              0.0000000000E+00      0.0000000000E+00       extra                
s1r06_04              0.0000000000E+00      0.0000000000E+00       extra                
s1r06_05              0.0000000000E+00      0.0000000000E+00       extra                
s1r06_06              0.0000000000E+00      0.0000000000E+00       extra                
s1r06_07              0.0000000000E+00      0.0000000000E+00       extra                
s1r06_08              0.0000000000E+00      0.0000000000E+00       extra                
s1r06_09              0.0000000000E+00      0.0000000000E+00       extra                
s1r06_10              0.0000000000E+00      0.0000000000E+00       extra                
s1r06_11              0.0000000000E+00      0.0000000000E+00       extra                
s1r06_12              0.0000000000E+00      0.0000000000E+00       extra                
s1r07_01              0.0000000000E+00      0.0000000000E+00       extra                
s1r07_02              0.0000000000E+00      0.0000000000E+00       extra                
s1r07_03              0.0000000000E+00      0.0000000000E+00       extra                
s1r07_04              0.0000000000E+00      0.0000000000E+00       extra                
s1r07_05              0.0000000000E+00      0.0000000000E+00       extra                
s1r07_06              0.0000000000E+00      0.0000000000E+00       extra                
s1r07_07              0.0000000000E+00      0.0000000000E+00       extra                
s1r07_08              0.0000000000E+00      0.0000000000E+00       extra                
s1r07_09              0.0000000000E+00      0.0000000000E+00       extra                
s1r07_10              0.0000000000E+00      0.0000000000E+00       extra                
s1r07_11              0.0000000000E+00      0.0000000000E+00       extra                
s1r07_12              0.0000000000E+00      0.0000000000E+00       extra                
s1r08_01              0.0000000000E+00      0.0000000000E+00       extra                
s1r08_02              0.0000000000E+00      0.0000000000E+00       extra                
s1r08_03              0.0000000000E+00      0.0000000000E+00       extra                
s1r08_04              0.0000000000E+00      0.0000000000E+00       extra                
s1r08_05              0.0000000000E+00      0.0000000000E+00       extra                
s1r08_06              0.0000000000E+00      0.0000000000E+00       extra                
s1r08_07              0.0000000000E+00      0.0000000000E+00       extra                
s1r08_08              0.0000000000E+00      0.0000000000E+00       extra                
s1r08_09              0.0000000000E+00      0.0000000000E+00       extra                
s1r08_10              0.0000000000E+00      0.0000000000E+00       extra                
s1r08_11              0.0000000000E+00      0.0000000000E+00       extra                
s1r08_12              0.0000000000E+00      0.0000000000E+00       extra                
s1r09_01              0.0000000000E+00      0.0000000000E+00       extra                
s1r09_02              0.0000000000E+00      0.0000000000E+00       extra                
s1r09_03              0.0000000000E+00      0.0000000000E+00       extra                
s1r09_04              0.0000000000E+00      0.0000000000E+00       extra                
s1r09_05              0.0000000000E+00      0.0000000000E+00       extra                
s1r09_06              0.0000000000E+00      0.0000000000E+00       extra                
s1r09_07              0.0000000000E+00      0.0000000000E+00       extra                
s1r09_08              0.0000000000E+00      0.0000000000E+00       extra                
s1r09_09              0.0000000000E+00      0.0000000000E+00       extra                
s1r09_10              0.0000000000E+00      0.0000000000E+00       extra                
s1r09_11              0.0000000000E+00      0.0000000000E+00       extra                
s1r09_12              0.0000000000E+00      0.0000000000E+00       extra                
s1r10_01              0.0000000000E+00      0.0000000000E+00       extra                
s1r10_02              0.0000000000E+00      0.0000000000E+00       extra                
s1r10_03              0.0000000000E+00      0.0000000000E+00       extra                
s1r10_04              0.0000000000E+00      0.0000000000E+00       extra                
s1r10_05              0.0000000000E+00      0.0000000000E+00       extra                
s1r10_06              0.0000000000E+00      0.0000000000E+00       extra                
s1r10_07              0.0000000000E+00      0.0000000000E+00       extra                
s1r10_08              0.0000000000E+00      0.0000000000E+00       extra                
s1r10_09              0.0000000000E+00      0.0000000000E+00       extra                
s1r10_10              0.0000000000E+00      0.0000000000E+00       extra                
s1r10_11              0.0000000000E+00      0.0000000000E+00       extra                
s1r10_12              0.0000000000E+00      0.0000000000E+00       extra                
s1r11_01              0.0000000000E+00      0.0000000000E+00       extra                
s1r11_02              0.0000000000E+00      0.0000000000E+00       extra                
s1r11_03              0.0000000000E+00      0.0000000000E+00       extra                
s1r11_04              0.0000000000E+00      0.0000000000E+00       extra                
s1r11_05              0.0000000000E+00      0.0000000000E+00       extra                
s1r11_06              0.0000000000E+00      0.0000000000E+00       extra                
s1r11_07              0.0000000000E+00      0.0000000000E+00       extra                
s1r11_08              0.0000000000E+00      0.0000000000E+00       extra                
s1r11_09              0.0000000000E+00      0.0000000000E+00       extra                
s1r11_10              0.0000000000E+00      0.0000000000E+00       extra                
s1r11_11              0.0000000000E+00      0.0000000000E+00       extra                
s1r11_12              0.0000000000E+00      0.0000000000E+00       extra                
s1r12_01              0.0000000000E+00      0.0000000000E+00       extra                
s1r12_02              0.0000000000E+00      0.0000000000E+00       extra                
s1r12_03              0.0000000000E+00      0.0000000000E+00       extra                
s1r12_04              0.0000000000E+00      0.0000000000E+00       extra                
s1r12_05              0.0000000000E+00      0.0000000000E+00       extra                
s1r12_06              0.0000000000E+00      0.0000000000E+00       extra                
s1r12_07              0.0000000000E+00      0.0000000000E+00       extra                
s1r12_08              0.0000000000E+00      0.0000000000E+00       extra                
s1r12_09              0.0000000000E+00      0.0000000000E+00       extra                
s1r12_10              0.0000000000E+00      0.0000000000E+00       extra                
s1r12_11              0.0000000000E+00      0.0000000000E+00       extra                
s1r12_12              0.0000000000E+00      0.0000000000E+00       extra                
s1r13_01              0.0000000000E+00      0.0000000000E+00       extra                
s1r13_02              0.0000000000E+00      0.0000000000E+00       extra                
s1r13_03              0.0000000000E+00      0.0000000000E+00       extra                
s1r13_04              0.0000000000E+00      0.0000000000E+00       extra                
s1r13_05              0.0000000000E+00      0.0000000000E+00       extra                
s1r13_06              0.0000000000E+00      0.0000000000E+00       extra                
s1r13_07              0.0000000000E+00      0.0000000000E+00       extra                
s1r13_08              0.0000000000E+00      0.0000000000E+00       extra                
s1r13_09              0.0000000000E+00      0.0000000000E+00       extra                
s1r13_10              0.0000000000E+00      0.0000000000E+00       extra                
s1r13_11              0.0000000000E+00      0.0000000000E+00       extra                
s1r13_12              0.0000000000E+00      0.0000000000E+00       extra                
s1r14_01              0.0000000000E+00      0.0000000000E+00       extra                
s1r14_02              0.0000000000E+00      0.0000000000E+00       extra                
s1r14_03              0.0000000000E+00      0.0000000000E+00       extra                
s1r14_04              0.0000000000E+00      0.0000000000E+00       extra                
s1r14_05              0.0000000000E+00      0.0000000000E+00       extra                
s1r14_06              0.0000000000E+00      0.0000000000E+00       extra                
s1r14_07              0.0000000000E+00      0.0000000000E+00       extra                
s1r14_08              0.0000000000E+00      0.0000000000E+00       extra                
s1r15_01              0.0000000000E+00      0.0000000000E+00       extra                
s1r15_02              0.0000000000E+00      0.0000000000E+00       extra                
s1r15_03              0.0000000000E+00      0.0000000000E+00       extra                
s1r15_04              0.0000000000E+00      0.0000000000E+00       extra                
s1r15_05              0.0000000000E+00      0.0000000000E+00       extra                
s1r15_06              0.0000000000E+00      0.0000000000E+00       extra                
s1r15_07              0.0000000000E+00      0.0000000000E+00       extra                
s1r15_08              0.0000000000E+00      0.0000000000E+00       extra                
s1r15_09              0.0000000000E+00      0.0000000000E+00       extra                
s1r15_10              0.0000000000E+00      0.0000000000E+00       extra                
s1r15_11              0.0000000000E+00      0.0000000000E+00       extra                
s1r15_12              0.0000000000E+00      0.0000000000E+00       extra                
s1r16_01              0.0000000000E+00      0.0000000000E+00       extra                
s1r16_02              0.0000000000E+00      0.0000000000E+00       extra                
s1r16_03              0.0000000000E+00      0.0000000000E+00       extra                
s1r16_04              0.0000000000E+00      0.0000000000E+00       extra                
s1r16_05              0.0000000000E+00      0.0000000000E+00       extra                
s1r16_06              0.0000000000E+00      0.0000000000E+00       extra                
s1r16_07              0.0000000000E+00      0.0000000000E+00       extra                
s1r16_08              0.0000000000E+00      0.0000000000E+00       extra                
s1r16_09              0.0000000000E+00      0.0000000000E+00       extra                
s1r16_10              0.0000000000E+00      0.0000000000E+00       extra                
s1r16_11              0.0000000000E+00      0.0000000000E+00       extra                
s1r16_12              0.0000000000E+00      0.0000000000E+00       extra                
s1r17_01              0.0000000000E+00      0.0000000000E+00       extra                
s1r17_02              0.0000000000E+00      0.0000000000E+00       extra                
s1r17_03              0.0000000000E+00      0.0000000000E+00       extra                
s1r17_04              0.0000000000E+00      0.0000000000E+00       extra                
s1r17_05              0.0000000000E+00      0.0000000000E+00       extra                
s1r17_06              0.0000000000E+00      0.0000000000E+00       extra                
s1r17_07              0.0000000000E+00      0.0000000000E+00       extra                
s1r17_08              0.0000000000E+00      0.0000000000E+00       extra                
s1r17_09              0.0000000000E+00      0.0000000000E+00       extra                
s1r17_10              0.0000000000E+00      0.0000000000E+00       extra                
s1r17_11              0.0000000000E+00      0.0000000000E+00       extra                
s1r17_12              0.0000000000E+00      0.0000000000E+00       extra                
s1r18_01              0.0000000000E+00      0.0000000000E+00       extra                
s1r18_02              0.0000000000E+00      0.0000000000E+00       extra                
s1r18_03              0.0000000000E+00      0.0000000000E+00       extra                
s1r18_04              0.0000000000E+00      0.0000000000E+00       extra                
s1r18_05              0.0000000000E+00      0.0000000000E+00       extra                
s1r18_06              0.0000000000E+00      0.0000000000E+00       extra                
s1r18_07              0.0000000000E+00      0.0000000000E+00       extra                
s1r18_08              0.0000000000E+00      0.0000000000E+00       extra                
s1r18_09              0.0000000000E+00      0.0000000000E+00       extra                
s1r18_10              0.0000000000E+00      0.0000000000E+00       extra                
s1r18_11              0.0000000000E+00      0.0000000000E+00       extra                
s1r18_12              0.0000000000E+00      0.0000000000E+00       extra                
s1r19_01              0.0000000000E+00      0.0000000000E+00       extra                
s1r19_02              0.0000000000E+00      0.0000000000E+00       extra                
s1r19_03              0.0000000000E+00      0.0000000000E+00       extra                
s1r19_04              0.0000000000E+00      0.0000000000E+00       extra                
s1r19_05              0.0000000000E+00      0.0000000000E+00       extra                
s1r19_06              0.0000000000E+00      0.0000000000E+00       extra                
s1r19_07              0.0000000000E+00      0.0000000000E+00       extra                
s1r19_08              0.0000000000E+00      0.0000000000E+00       extra                
s1r19_09              0.0000000000E+00      0.0000000000E+00       extra                
s1r19_10              0.0000000000E+00      0.0000000000E+00       extra                
s1r19_11              0.0000000000E+00      0.0000000000E+00       extra                
s1r19_12              0.0000000000E+00      0.0000000000E+00       extra                
s1r20_01              0.0000000000E+00      0.0000000000E+00       extra                
s1r20_02              0.0000000000E+00      0.0000000000E+00       extra                
s1r20_03              0.0000000000E+00      0.0000000000E+00       extra                
s1r20_04              0.0000000000E+00      0.0000000000E+00       extra                
s1r20_05              0.0000000000E+00      0.0000000000E+00       extra                
s1r20_06              0.0000000000E+00      0.0000000000E+00       extra                
s1r20_07              0.0000000000E+00      0.0000000000E+00       extra                
s1r20_08              0.0000000000E+00      0.0000000000E+00       extra                
s1r20_09              0.0000000000E+00      0.0000000000E+00       extra                
s1r20_10              0.0000000000E+00      0.0000000000E+00       extra                
s1r20_11              0.0000000000E+00      0.0000000000E+00       extra                
s1r20_12              0.0000000000E+00      0.0000000000E+00       extra                
s1r21_01              0.0000000000E+00      0.0000000000E+00       extra                
s1r21_02              0.0000000000E+00      0.0000000000E+00       extra                
s1r21_03              0.0000000000E+00      0.0000000000E+00       extra                
s1r21_04              0.0000000000E+00      0.0000000000E+00       extra                
s1r21_05              0.0000000000E+00      0.0000000000E+00       extra                
s1r21_06              0.0000000000E+00      0.0000000000E+00       extra                
s1r21_07              0.0000000000E+00      0.0000000000E+00       extra                
s1r21_08              0.0000000000E+00      0.0000000000E+00       extra                
s1r21_09              0.0000000000E+00      0.0000000000E+00       extra                
s1r21_10              0.0000000000E+00      0.0000000000E+00       extra                
s1r22_01              0.0000000000E+00      0.0000000000E+00       extra                
s1r22_02              0.0000000000E+00      0.0000000000E+00       extra                
s1r22_03              0.0000000000E+00      0.0000000000E+00       extra                
s1r22_04              0.0000000000E+00      0.0000000000E+00       extra                
s1r22_05              0.0000000000E+00      0.0000000000E+00       extra                
s1r22_06              0.0000000000E+00      0.0000000000E+00       extra                
s1r22_07              0.0000000000E+00      0.0000000000E+00       extra                
s1r22_08              0.0000000000E+00      0.0000000000E+00       extra                
s1r22_09              0.0000000000E+00      0.0000000000E+00       extra                
s1r22_10              0.0000000000E+00      0.0000000000E+00       extra                
s1r22_11              0.0000000000E+00      0.0000000000E+00       extra                
s1r22_12              0.0000000000E+00      0.0000000000E+00       extra                
s2r01_01              0.0000000000E+00      0.0000000000E+00       extra                
s2r01_02              0.0000000000E+00      0.0000000000E+00       extra                
s2r01_03              0.0000000000E+00      0.0000000000E+00       extra                
s2r01_04              0.0000000000E+00      0.0000000000E+00       extra                
s2r01_05              0.0000000000E+00      0.0000000000E+00       extra                
s2r01_06              0.0000000000E+00      0.0000000000E+00       extra                
s2r01_07              0.0000000000E+00      0.0000000000E+00       extra                
s2r01_08              0.0000000000E+00      0.0000000000E+00       extra                
s2r01_09              0.0000000000E+00      0.0000000000E+00       extra                
s2r01_10              0.0000000000E+00      0.0000000000E+00       extra                
s2r01_11              0.0000000000E+00      0.0000000000E+00       extra                
s2r01_12              0.0000000000E+00      0.0000000000E+00       extra                
s2r02_01              0.0000000000E+00      0.0000000000E+00       extra                
s2r02_02              0.0000000000E+00      0.0000000000E+00       extra                
s2r02_03              0.0000000000E+00      0.0000000000E+00       extra                
s2r02_04              0.0000000000E+00      0.0000000000E+00       extra                
s2r02_05              0.0000000000E+00      0.0000000000E+00       extra                
s2r02_06              0.0000000000E+00      0.0000000000E+00       extra                
s2r02_07              0.0000000000E+00      0.0000000000E+00       extra                
s2r02_08              0.0000000000E+00      0.0000000000E+00       extra                
s2r02_09              0.0000000000E+00      0.0000000000E+00       extra                
s2r02_10              0.0000000000E+00      0.0000000000E+00       extra                
s2r02_11              0.0000000000E+00      0.0000000000E+00       extra                
s2r02_12              0.0000000000E+00      0.0000000000E+00       extra                
s2r03_01              0.0000000000E+00      0.0000000000E+00       extra                
s2r03_02              0.0000000000E+00      0.0000000000E+00       extra                
s2r03_03              0.0000000000E+00      0.0000000000E+00       extra                
s2r03_04              0.0000000000E+00      0.0000000000E+00       extra                
s2r03_05              0.0000000000E+00      0.0000000000E+00       extra                
s2r03_06              0.0000000000E+00      0.0000000000E+00       extra                
s2r03_07              0.0000000000E+00      0.0000000000E+00       extra                
s2r03_08              0.0000000000E+00      0.0000000000E+00       extra                
s2r03_09              0.0000000000E+00      0.0000000000E+00       extra                
s2r03_10              0.0000000000E+00      0.0000000000E+00       extra                
s2r03_11              0.0000000000E+00      0.0000000000E+00       extra                
s2r03_12              0.0000000000E+00      0.0000000000E+00       extra                
s2r04_01              0.0000000000E+00      0.0000000000E+00       extra                