# RCH package for  MODFLOW-2005, generated by Flopy.
         1        -1
         1        -1 # Stress period 1
OPEN/CLOSE                    .\rech_0.ref               1     (FREE) -1 rech_1                        
