pcf
* control data
             restart      regularization
      3347      1573         8      1034        50         0
        11         7              single               point         1         0         0          noobsreref
   2.000000E+01  -3.000000E+00   3.000000E-01   1.000000E-02        -7       999          lamforgive        noderforgive
   1.000000E+01   1.000000E+01   1.000000E-03         0         0
   1.000000E-01         1   1.100000E+00               noaui          nosenreuse        noboundscale
         1   1.000000E-02         3         3   1.000000E-02         3   0.000000E+00         1  -1.000000E+00
         0         0         0         0             jcosave          verboserec          jcosaveitn          reisaveitn          parsaveitn        noparsaverun
* singular value decomposition
         1
  10000000    1.000000E-06
1
* parameter groups
grprst0                 relative              1.0000000000E-02       0.0  switch                2.0000000000E+00       parabolic             1.0000000000E-05      5.0000000000E-01       smaller              
grrc110                 relative              1.0000000000E-02       0.0  switch                2.0000000000E+00       parabolic             1.0000000000E-05      5.0000000000E-01       smaller              
grrech0                 relative              1.0000000000E-02       0.0  switch                2.0000000000E+00       parabolic             1.0000000000E-05      5.0000000000E-01       smaller              
grhk0                   relative              1.0000000000E-02       0.0  switch                2.0000000000E+00       parabolic             1.0000000000E-05      5.0000000000E-01       smaller              
kg                      absolute              1.0000000000E+00       0.0  switch                2.0000000000E+00       parabolic             1.0000000000E-05      5.0000000000E-01       smaller              
hcond1                  relative              1.0000000000E-02       0.0  switch                2.0000000000E+00       parabolic             1.0000000000E-05      5.0000000000E-01       smaller              
wflux_000               relative              1.0000000000E-02       0.0  switch                2.0000000000E+00       parabolic             1.0000000000E-05      5.0000000000E-01       smaller              
cn                      relative              1.0000000000E-02       0.0  switch                2.0000000000E+00       parabolic             1.0000000000E-05      5.0000000000E-01       smaller
* parameter data
hk1_cn                 fixed                  factor                1.0000000000E+00      1.0000000000E-02      1.0000000000E+02       cn                    1.0000000000E+00      0.0000000000E+00      1          
prst1_cn               fixed                  factor                1.0000000000E+00      1.0000000000E-01      1.0000000000E+01       cn                    1.0000000000E+00      0.0000000000E+00      1          
rc111_cn               fixed                  factor                1.0000000000E+00      1.0000000000E-01      1.0000000000E+01       cn                    1.0000000000E+00      0.0000000000E+00      1          
rech1_cn               fixed                  factor                1.0000000000E+00      9.0000000000E-01      1.1000000000E+00       cn                    1.0000000000E+00      0.0000000000E+00      1          
hk0000000              fixed                  factor                1.0000000000E+00      1.0000000000E-02      1.0000000000E+02       grhk0                 1.0000000000E+00      0.0000000000E+00      1          
hk0000001              fixed                  factor                1.0000000000E+00      1.0000000000E-02      1.0000000000E+02       grhk0                 1.0000000000E+00      0.0000000000E+00      1          
hk0000002              fixed                  factor                1.0000000000E+00      1.0000000000E-02      1.0000000000E+02       grhk0                 1.0000000000E+00      0.0000000000E+00      1          
hk0000003              fixed                  factor                1.0000000000E+00      1.0000000000E-02      1.0000000000E+02       grhk0                 1.0000000000E+00      0.0000000000E+00      1          
hk0000004              fixed                  factor                1.0000000000E+00      1.0000000000E-02      1.0000000000E+02       grhk0                 1.0000000000E+00      0.0000000000E+00      1          
hk0000005              fixed                  factor                1.0000000000E+00      1.0000000000E-02      1.0000000000E+02       grhk0                 1.0000000000E+00      0.0000000000E+00      1          
hk0000006              fixed                  factor                1.0000000000E+00      1.0000000000E-02      1.0000000000E+02       grhk0                 1.0000000000E+00      0.0000000000E+00      1          
hk0000007              fixed                  factor                1.0000000000E+00      1.0000000000E-02      1.0000000000E+02       grhk0                 1.0000000000E+00      0.0000000000E+00      1          
hk0000008              fixed                  factor                1.0000000000E+00      1.0000000000E-02      1.0000000000E+02       grhk0                 1.0000000000E+00      0.0000000000E+00      1          
hk0000009              fixed                  factor                1.0000000000E+00      1.0000000000E-02      1.0000000000E+02       grhk0                 1.0000000000E+00      0.0000000000E+00      1          
hk0000010              fixed                  factor                1.0000000000E+00      1.0000000000E-02      1.0000000000E+02       grhk0                 1.0000000000E+00      0.0000000000E+00      1          
hk0000011              fixed                  factor                1.0000000000E+00      1.0000000000E-02      1.0000000000E+02       grhk0                 1.0000000000E+00      0.0000000000E+00      1          
hk0000012              fixed                  factor                1.0000000000E+00      1.0000000000E-02      1.0000000000E+02       grhk0                 1.0000000000E+00      0.0000000000E+00      1          
hk0000013              fixed                  factor                1.0000000000E+00      1.0000000000E-02      1.0000000000E+02       grhk0                 1.0000000000E+00      0.0000000000E+00      1          
hk0000014              fixed                  factor                1.0000000000E+00      1.0000000000E-02      1.0000000000E+02       grhk0                 1.0000000000E+00      0.0000000000E+00      1          
hk0000015              fixed                  factor                1.0000000000E+00      1.0000000000E-02      1.0000000000E+02       grhk0                 1.0000000000E+00      0.0000000000E+00      1          
hk0000016              fixed                  factor                1.0000000000E+00      1.0000000000E-02      1.0000000000E+02       grhk0                 1.0000000000E+00      0.0000000000E+00      1          
hk0000017              fixed                  factor                1.0000000000E+00      1.0000000000E-02      1.0000000000E+02       grhk0                 1.0000000000E+00      0.0000000000E+00      1          
hk0000018              fixed                  factor                1.0000000000E+00      1.0000000000E-02      1.0000000000E+02       grhk0                 1.0000000000E+00      0.0000000000E+00      1          
hk0000019              fixed                  factor                1.0000000000E+00      1.0000000000E-02      1.0000000000E+02       grhk0                 1.0000000000E+00      0.0000000000E+00      1          
hk0001000              fixed                  factor                1.0000000000E+00      1.0000000000E-02      1.0000000000E+02       grhk0                 1.0000000000E+00      0.0000000000E+00      1          
hk0001001              fixed                  factor                1.0000000000E+00      1.0000000000E-02      1.0000000000E+02       grhk0                 1.0000000000E+00      0.0000000000E+00      1          
hk0001002              fixed                  factor                1.0000000000E+00      1.0000000000E-02      1.0000000000E+02       grhk0                 1.0000000000E+00      0.0000000000E+00      1          
hk0001003              fixed                  factor                1.0000000000E+00      1.0000000000E-02      1.0000000000E+02       grhk0                 1.0000000000E+00      0.0000000000E+00      1          
hk0001004              fixed                  factor                1.0000000000E+00      1.0000000000E-02      1.0000000000E+02       grhk0                 1.0000000000E+00      0.0000000000E+00      1          
hk0001005              fixed                  factor                1.0000000000E+00      1.0000000000E-02      1.0000000000E+02       grhk0                 1.0000000000E+00      0.0000000000E+00      1          
hk0001006              fixed                  factor                1.0000000000E+00      1.0000000000E-02      1.0000000000E+02       grhk0                 1.0000000000E+00      0.0000000000E+00      1          
hk0001007              fixed                  factor                1.0000000000E+00      1.0000000000E-02      1.0000000000E+02       grhk0                 1.0000000000E+00      0.0000000000E+00      1          
hk0001008              fixed                  factor                1.0000000000E+00      1.0000000000E-02      1.0000000000E+02       grhk0                 1.0000000000E+00      0.0000000000E+00      1          
hk0001009              fixed                  factor                1.0000000000E+00      1.0000000000E-02      1.0000000000E+02       grhk0                 1.0000000000E+00      0.0000000000E+00      1          
hk0001010              fixed                  factor                1.0000000000E+00      1.0000000000E-02      1.0000000000E+02       grhk0                 1.0000000000E+00      0.0000000000E+00      1          
hk0001011              fixed                  factor                1.0000000000E+00      1.0000000000E-02      1.0000000000E+02       grhk0                 1.0000000000E+00      0.0000000000E+00      1          
hk0001012              fixed                  factor                1.0000000000E+00      1.0000000000E-02      1.0000000000E+02       grhk0                 1.0000000000E+00      0.0000000000E+00      1          
hk0001013              fixed                  factor                1.0000000000E+00      1.0000000000E-02      1.0000000000E+02       grhk0                 1.0000000000E+00      0.0000000000E+00      1          
hk0001014              fixed                  factor                1.0000000000E+00      1.0000000000E-02      1.0000000000E+02       grhk0                 1.0000000000E+00      0.0000000000E+00      1          
hk0001015              fixed                  factor                1.0000000000E+00      1.0000000000E-02      1.0000000000E+02       grhk0                 1.0000000000E+00      0.0000000000E+00      1          
hk0001016              fixed                  factor                1.0000000000E+00      1.0000000000E-02      1.0000000000E+02       grhk0                 1.0000000000E+00      0.0000000000E+00      1          
hk0001017              fixed                  factor                1.0000000000E+00      1.0000000000E-02      1.0000000000E+02       grhk0                 1.0000000000E+00      0.0000000000E+00      1          
hk0001018              fixed                  factor                1.0000000000E+00      1.0000000000E-02      1.0000000000E+02       grhk0                 1.0000000000E+00      0.0000000000E+00      1          
hk0001019              fixed                  factor                1.0000000000E+00      1.0000000000E-02      1.0000000000E+02       grhk0                 1.0000000000E+00      0.0000000000E+00      1          
hk0002000              fixed                  factor                1.0000000000E+00      1.0000000000E-02      1.0000000000E+02       grhk0                 1.0000000000E+00      0.0000000000E+00      1          
hk0002001              fixed                  factor                1.0000000000E+00      1.0000000000E-02      1.0000000000E+02       grhk0                 1.0000000000E+00      0.0000000000E+00      1          
hk0002002              fixed                  factor                1.0000000000E+00      1.0000000000E-02      1.0000000000E+02       grhk0                 1.0000000000E+00      0.0000000000E+00      1          
hk0002003              fixed                  factor                1.0000000000E+00      1.0000000000E-02      1.0000000000E+02       grhk0                 1.0000000000E+00      0.0000000000E+00      1          
hk0002004              fixed                  factor                1.0000000000E+00      1.0000000000E-02      1.0000000000E+02       grhk0                 1.0000000000E+00      0.0000000000E+00      1          
hk0002005              fixed                  factor                1.0000000000E+00      1.0000000000E-02      1.0000000000E+02       grhk0                 1.0000000000E+00      0.0000000000E+00      1          
hk0002006              fixed                  factor                1.0000000000E+00      1.0000000000E-02      1.0000000000E+02       grhk0                 1.0000000000E+00      0.0000000000E+00      1          
hk0002007              fixed                  factor                1.0000000000E+00      1.0000000000E-02      1.0000000000E+02       grhk0                 1.0000000000E+00      0.0000000000E+00      1          
hk0002008              fixed                  factor                1.0000000000E+00      1.0000000000E-02      1.0000000000E+02       grhk0                 1.0000000000E+00      0.0000000000E+00      1          
hk0002009              fixed                  factor                1.0000000000E+00      1.0000000000E-02      1.0000000000E+02       grhk0                 1.0000000000E+00      0.0000000000E+00      1          
hk0002010              fixed                  factor                1.0000000000E+00      1.0000000000E-02      1.0000000000E+02       grhk0                 1.0000000000E+00      0.0000000000E+00      1          
hk0002011              fixed                  factor                1.0000000000E+00      1.0000000000E-02      1.0000000000E+02       grhk0                 1.0000000000E+00      0.0000000000E+00      1          
hk0002012              fixed                  factor                1.0000000000E+00      1.0000000000E-02      1.0000000000E+02       grhk0                 1.0000000000E+00      0.0000000000E+00      1          
hk0002013              fixed                  factor                1.0000000000E+00      1.0000000000E-02      1.0000000000E+02       grhk0                 1.0000000000E+00      0.0000000000E+00      1          
hk0002014              fixed                  factor                1.0000000000E+00      1.0000000000E-02      1.0000000000E+02       grhk0                 1.0000000000E+00      0.0000000000E+00      1          
hk0002015              fixed                  factor                1.0000000000E+00      1.0000000000E-02      1.0000000000E+02       grhk0                 1.0000000000E+00      0.0000000000E+00      1          
hk0002016              fixed                  factor                1.0000000000E+00      1.0000000000E-02      1.0000000000E+02       grhk0                 1.0000000000E+00      0.0000000000E+00      1          
hk0002017              fixed                  factor                1.0000000000E+00      1.0000000000E-02      1.0000000000E+02       grhk0                 1.0000000000E+00      0.0000000000E+00      1          
hk0002018              fixed                  factor                1.0000000000E+00      1.0000000000E-02      1.0000000000E+02       grhk0                 1.0000000000E+00      0.0000000000E+00      1          
hk0002019              fixed                  factor                1.0000000000E+00      1.0000000000E-02      1.0000000000E+02       grhk0                 1.0000000000E+00      0.0000000000E+00      1          
hk0003000              fixed                  factor                1.0000000000E+00      1.0000000000E-02      1.0000000000E+02       grhk0                 1.0000000000E+00      0.0000000000E+00      1          
hk0003001              fixed                  factor                1.0000000000E+00      1.0000000000E-02      1.0000000000E+02       grhk0                 1.0000000000E+00      0.0000000000E+00      1          
hk0003002              fixed                  factor                1.0000000000E+00      1.0000000000E-02      1.0000000000E+02       grhk0                 1.0000000000E+00      0.0000000000E+00      1          
hk0003003              fixed                  factor                1.0000000000E+00      1.0000000000E-02      1.0000000000E+02       grhk0                 1.0000000000E+00      0.0000000000E+00      1          
hk0003004              fixed                  factor                1.0000000000E+00      1.0000000000E-02      1.0000000000E+02       grhk0                 1.0000000000E+00      0.0000000000E+00      1          
hk0003005              fixed                  factor                1.0000000000E+00      1.0000000000E-02      1.0000000000E+02       grhk0                 1.0000000000E+00      0.0000000000E+00      1          
hk0003006              fixed                  factor                1.0000000000E+00      1.0000000000E-02      1.0000000000E+02       grhk0                 1.0000000000E+00      0.0000000000E+00      1          
hk0003007              fixed                  factor                1.0000000000E+00      1.0000000000E-02      1.0000000000E+02       grhk0                 1.0000000000E+00      0.0000000000E+00      1          
hk0003008              fixed                  factor                1.0000000000E+00      1.0000000000E-02      1.0000000000E+02       grhk0                 1.0000000000E+00      0.0000000000E+00      1          
hk0003009              fixed                  factor                1.0000000000E+00      1.0000000000E-02      1.0000000000E+02       grhk0                 1.0000000000E+00      0.0000000000E+00      1          
hk0003010              fixed                  factor                1.0000000000E+00      1.0000000000E-02      1.0000000000E+02       grhk0                 1.0000000000E+00      0.0000000000E+00      1          
hk0003011              fixed                  factor                1.0000000000E+00      1.0000000000E-02      1.0000000000E+02       grhk0                 1.0000000000E+00      0.0000000000E+00      1          
hk0003012              fixed                  factor                1.0000000000E+00      1.0000000000E-02      1.0000000000E+02       grhk0                 1.0000000000E+00      0.0000000000E+00      1          
hk0003013              fixed                  factor                1.0000000000E+00      1.0000000000E-02      1.0000000000E+02       grhk0                 1.0000000000E+00      0.0000000000E+00      1          
hk0003014              fixed                  factor                1.0000000000E+00      1.0000000000E-02      1.0000000000E+02       grhk0                 1.0000000000E+00      0.0000000000E+00      1          
hk0003015              fixed                  factor                1.0000000000E+00      1.0000000000E-02      1.0000000000E+02       grhk0                 1.0000000000E+00      0.0000000000E+00      1          
hk0003016              fixed                  factor                1.0000000000E+00      1.0000000000E-02      1.0000000000E+02       grhk0                 1.0000000000E+00      0.0000000000E+00      1          
hk0003017              fixed                  factor                1.0000000000E+00      1.0000000000E-02      1.0000000000E+02       grhk0                 1.0000000000E+00      0.0000000000E+00      1          
hk0003018              fixed                  factor                1.0000000000E+00      1.0000000000E-02      1.0000000000E+02       grhk0                 1.0000000000E+00      0.0000000000E+00      1          
hk0003019              fixed                  factor                1.0000000000E+00      1.0000000000E-02      1.0000000000E+02       grhk0                 1.0000000000E+00      0.0000000000E+00      1          
hk0004000              fixed                  factor                1.0000000000E+00      1.0000000000E-02      1.0000000000E+02       grhk0                 1.0000000000E+00      0.0000000000E+00      1          
hk0004001              fixed                  factor                1.0000000000E+00      1.0000000000E-02      1.0000000000E+02       grhk0                 1.0000000000E+00      0.0000000000E+00      1          
hk0004002              fixed                  factor                1.0000000000E+00      1.0000000000E-02      1.0000000000E+02       grhk0                 1.0000000000E+00      0.0000000000E+00      1          
hk0004003              fixed                  factor                1.0000000000E+00      1.0000000000E-02      1.0000000000E+02       grhk0                 1.0000000000E+00      0.0000000000E+00      1          
hk0004004              fixed                  factor                1.0000000000E+00      1.0000000000E-02      1.0000000000E+02       grhk0                 1.0000000000E+00      0.0000000000E+00      1          
hk0004005              fixed                  factor                1.0000000000E+00      1.0000000000E-02      1.0000000000E+02       grhk0                 1.0000000000E+00      0.0000000000E+00      1          
hk0004006              fixed                  factor                1.0000000000E+00      1.0000000000E-02      1.0000000000E+02       grhk0                 1.0000000000E+00      0.0000000000E+00      1          
hk0004007              fixed                  factor                1.0000000000E+00      1.0000000000E-02      1.0000000000E+02       grhk0                 1.0000000000E+00      0.0000000000E+00      1          
hk0004008              fixed                  factor                1.0000000000E+00      1.0000000000E-02      1.0000000000E+02       grhk0                 1.0000000000E+00      0.0000000000E+00      1          
hk0004009              fixed                  factor                1.0000000000E+00      1.0000000000E-02      1.0000000000E+02       grhk0                 1.0000000000E+00      0.0000000000E+00      1          
hk0004010              fixed                  factor                1.0000000000E+00      1.0000000000E-02      1.0000000000E+02       grhk0                 1.0000000000E+00      0.0000000000E+00      1          
hk0004011              fixed                  factor                1.0000000000E+00      1.0000000000E-02      1.0000000000E+02       grhk0                 1.0000000000E+00      0.0000000000E+00      1          
hk0004012              fixed                  factor                1.0000000000E+00      1.0000000000E-02      1.0000000000E+02       grhk0                 1.0000000000E+00      0.0000000000E+00      1          
hk0004013              fixed                  factor                1.0000000000E+00      1.0000000000E-02      1.0000000000E+02       grhk0                 1.0000000000E+00      0.0000000000E+00      1          
hk0004014              fixed                  factor                1.0000000000E+00      1.0000000000E-02      1.0000000000E+02       grhk0                 1.0000000000E+00      0.0000000000E+00      1          
hk0004015              fixed                  factor                1.0000000000E+00      1.0000000000E-02      1.0000000000E+02       grhk0                 1.0000000000E+00      0.0000000000E+00      1          
hk0004016              fixed                  factor                1.0000000000E+00      1.0000000000E-02      1.0000000000E+02       grhk0                 1.0000000000E+00      0.0000000000E+00      1          
hk0004017              fixed                  factor                1.0000000000E+00      1.0000000000E-02      1.0000000000E+02       grhk0                 1.0000000000E+00      0.0000000000E+00      1          
hk0004018              fixed                  factor                1.0000000000E+00      1.0000000000E-02      1.0000000000E+02       grhk0                 1.0000000000E+00      0.0000000000E+00      1          
hk0004019              fixed                  factor                1.0000000000E+00      1.0000000000E-02      1.0000000000E+02       grhk0                 1.0000000000E+00      0.0000000000E+00      1          
hk0005000              fixed                  factor                1.0000000000E+00      1.0000000000E-02      1.0000000000E+02       grhk0                 1.0000000000E+00      0.0000000000E+00      1          
hk0005001              fixed                  factor                1.0000000000E+00      1.0000000000E-02      1.0000000000E+02       grhk0                 1.0000000000E+00      0.0000000000E+00      1          
hk0005002              fixed                  factor                1.0000000000E+00      1.0000000000E-02      1.0000000000E+02       grhk0                 1.0000000000E+00      0.0000000000E+00      1          
hk0005003              fixed                  factor                1.0000000000E+00      1.0000000000E-02      1.0000000000E+02       grhk0                 1.0000000000E+00      0.0000000000E+00      1          
hk0005004              fixed                  factor                1.0000000000E+00      1.0000000000E-02      1.0000000000E+02       grhk0                 1.0000000000E+00      0.0000000000E+00      1          
hk0005005              fixed                  factor                1.0000000000E+00      1.0000000000E-02      1.0000000000E+02       grhk0                 1.0000000000E+00      0.0000000000E+00      1          
hk0005006              fixed                  factor                1.0000000000E+00      1.0000000000E-02      1.0000000000E+02       grhk0                 1.0000000000E+00      0.0000000000E+00      1          
hk0005007              fixed                  factor                1.0000000000E+00      1.0000000000E-02      1.0000000000E+02       grhk0                 1.0000000000E+00      0.0000000000E+00      1          
hk0005008              fixed                  factor                1.0000000000E+00      1.0000000000E-02      1.0000000000E+02       grhk0                 1.0000000000E+00      0.0000000000E+00      1          
hk0005009              fixed                  factor                1.0000000000E+00      1.0000000000E-02      1.0000000000E+02       grhk0                 1.0000000000E+00      0.0000000000E+00      1          
hk0005010              fixed                  factor                1.0000000000E+00      1.0000000000E-02      1.0000000000E+02       grhk0                 1.0000000000E+00      0.0000000000E+00      1          
hk0005011              fixed                  factor                1.0000000000E+00      1.0000000000E-02      1.0000000000E+02       grhk0                 1.0000000000E+00      0.0000000000E+00      1          
hk0005012              fixed                  factor                1.0000000000E+00      1.0000000000E-02      1.0000000000E+02       grhk0                 1.0000000000E+00      0.0000000000E+00      1          
hk0005013              fixed                  factor                1.0000000000E+00      1.0000000000E-02      1.0000000000E+02       grhk0                 1.0000000000E+00      0.0000000000E+00      1          
hk0005014              fixed                  factor                1.0000000000E+00      1.0000000000E-02      1.0000000000E+02       grhk0                 1.0000000000E+00      0.0000000000E+00      1          
hk0005015              fixed                  factor                1.0000000000E+00      1.0000000000E-02      1.0000000000E+02       grhk0                 1.0000000000E+00      0.0000000000E+00      1          
hk0005016              fixed                  factor                1.0000000000E+00      1.0000000000E-02      1.0000000000E+02       grhk0                 1.0000000000E+00      0.0000000000E+00      1          
hk0005017              fixed                  factor                1.0000000000E+00      1.0000000000E-02      1.0000000000E+02       grhk0                 1.0000000000E+00      0.0000000000E+00      1          
hk0005018              fixed                  factor                1.0000000000E+00      1.0000000000E-02      1.0000000000E+02       grhk0                 1.0000000000E+00      0.0000000000E+00      1          
hk0005019              fixed                  factor                1.0000000000E+00      1.0000000000E-02      1.0000000000E+02       grhk0                 1.0000000000E+00      0.0000000000E+00      1          
hk0006000              fixed                  factor                1.0000000000E+00      1.0000000000E-02      1.0000000000E+02       grhk0                 1.0000000000E+00      0.0000000000E+00      1          
hk0006001              fixed                  factor                1.0000000000E+00      1.0000000000E-02      1.0000000000E+02       grhk0                 1.0000000000E+00      0.0000000000E+00      1          
hk0006002              fixed                  factor                1.0000000000E+00      1.0000000000E-02      1.0000000000E+02       grhk0                 1.0000000000E+00      0.0000000000E+00      1          
hk0006003              fixed                  factor                1.0000000000E+00      1.0000000000E-02      1.0000000000E+02       grhk0                 1.0000000000E+00      0.0000000000E+00      1          