pcf
* control data
             restart          estimation
      4912      2163        15         0        17         0
        15         3              single               point         1         0         0          noobsreref
   2.000000E+01  -3.000000E+00   3.000000E-01   1.000000E-02        -7       999          lamforgive        noderforgive
   1.000000E+01   1.000000E+01   1.000000E-03         0         0
   1.000000E-01         1   1.100000E+00               noaui          nosenreuse        noboundscale
         0   1.000000E-02         3         3   1.000000E-02         3   0.000000E+00         1  -1.000000E+00
         0         0         0         0             jcosave          verboserec          jcosaveitn          reisaveitn          parsaveitn        noparsaverun
* singular value decomposition
         1
  10000000    1.000000E-06
1
* parameter groups
grsc10                  relative              1.0000000000E-02       0.0  switch                2.0000000000E+00       parabolic             1.0000000000E-05      5.0000000000E-01       smaller              
grrc110                 relative              1.0000000000E-02       0.0  switch                2.0000000000E+00       parabolic             1.0000000000E-05      5.0000000000E-01       smaller              
grrech1                 relative              1.0000000000E-02       0.0  switch                2.0000000000E+00       parabolic             1.0000000000E-05      5.0000000000E-01       smaller              
grprst0                 relative              1.0000000000E-02       0.0  switch                2.0000000000E+00       parabolic             1.0000000000E-05      5.0000000000E-01       smaller              
grrech0                 relative              1.0000000000E-02       0.0  switch                2.0000000000E+00       parabolic             1.0000000000E-05      5.0000000000E-01       smaller              
grhk0                   relative              1.0000000000E-02       0.0  switch                2.0000000000E+00       parabolic             1.0000000000E-05      5.0000000000E-01       smaller              
grrech2                 relative              1.0000000000E-02       0.0  switch                2.0000000000E+00       parabolic             1.0000000000E-05      5.0000000000E-01       smaller              
hcond1                  relative              1.0000000000E-02       0.0  switch                2.0000000000E+00       parabolic             1.0000000000E-05      5.0000000000E-01       smaller              
rech4_cn                relative              1.0000000000E-02       0.0  switch                2.0000000000E+00       parabolic             1.0000000000E-05      5.0000000000E-01       smaller              
hk1_cn                  relative              1.0000000000E-02       0.0  switch                2.0000000000E+00       parabolic             1.0000000000E-05      5.0000000000E-01       smaller              
sc11_cn                 relative              1.0000000000E-02       0.0  switch                2.0000000000E+00       parabolic             1.0000000000E-05      5.0000000000E-01       smaller              
rc111_cn                relative              1.0000000000E-02       0.0  switch                2.0000000000E+00       parabolic             1.0000000000E-05      5.0000000000E-01       smaller              
prst1_cn                relative              1.0000000000E-02       0.0  switch                2.0000000000E+00       parabolic             1.0000000000E-05      5.0000000000E-01       smaller              
rech5_cn                relative              1.0000000000E-02       0.0  switch                2.0000000000E+00       parabolic             1.0000000000E-05      5.0000000000E-01       smaller              
rech3_cn                relative              1.0000000000E-02       0.0  switch                2.0000000000E+00       parabolic             1.0000000000E-05      5.0000000000E-01       smaller
* parameter data
hcond1_0001            log                    factor                1.0000000000E+00      1.0000000000E-02      1.0000000000E+02       hcond1                1.0000000000E+00      0.0000000000E+00      1          
hcond1_0002            log                    factor                1.0000000000E+00      1.0000000000E-02      1.0000000000E+02       hcond1                1.0000000000E+00      0.0000000000E+00      1          
hcond1_0003            log                    factor                1.0000000000E+00      1.0000000000E-02      1.0000000000E+02       hcond1                1.0000000000E+00      0.0000000000E+00      1          
hcond1_0004            log                    factor                1.0000000000E+00      1.0000000000E-02      1.0000000000E+02       hcond1                1.0000000000E+00      0.0000000000E+00      1          
hcond1_0005            log                    factor                1.0000000000E+00      1.0000000000E-02      1.0000000000E+02       hcond1                1.0000000000E+00      0.0000000000E+00      1          
hcond1_0006            log                    factor                1.0000000000E+00      1.0000000000E-02      1.0000000000E+02       hcond1                1.0000000000E+00      0.0000000000E+00      1          
hcond1_0007            log                    factor                1.0000000000E+00      1.0000000000E-02      1.0000000000E+02       hcond1                1.0000000000E+00      0.0000000000E+00      1          
hcond1_0008            log                    factor                1.0000000000E+00      1.0000000000E-02      1.0000000000E+02       hcond1                1.0000000000E+00      0.0000000000E+00      1          
hcond1_0009            log                    factor                1.0000000000E+00      1.0000000000E-02      1.0000000000E+02       hcond1                1.0000000000E+00      0.0000000000E+00      1          
hcond1_0010            log                    factor                1.0000000000E+00      1.0000000000E-02      1.0000000000E+02       hcond1                1.0000000000E+00      0.0000000000E+00      1          
hcond1_0011            log                    factor                1.0000000000E+00      1.0000000000E-02      1.0000000000E+02       hcond1                1.0000000000E+00      0.0000000000E+00      1          
hcond1_0012            log                    factor                1.0000000000E+00      1.0000000000E-02      1.0000000000E+02       hcond1                1.0000000000E+00      0.0000000000E+00      1          
hcond1_0013            log                    factor                1.0000000000E+00      1.0000000000E-02      1.0000000000E+02       hcond1                1.0000000000E+00      0.0000000000E+00      1          
hcond1_0014            log                    factor                1.0000000000E+00      1.0000000000E-02      1.0000000000E+02       hcond1                1.0000000000E+00      0.0000000000E+00      1          
hcond1_0015            log                    factor                1.0000000000E+00      1.0000000000E-02      1.0000000000E+02       hcond1                1.0000000000E+00      0.0000000000E+00      1          
hcond1_0016            log                    factor                1.0000000000E+00      1.0000000000E-02      1.0000000000E+02       hcond1                1.0000000000E+00      0.0000000000E+00      1          
hcond1_0017            log                    factor                1.0000000000E+00      1.0000000000E-02      1.0000000000E+02       hcond1                1.0000000000E+00      0.0000000000E+00      1          
hcond1_0018            log                    factor                1.0000000000E+00      1.0000000000E-02      1.0000000000E+02       hcond1                1.0000000000E+00      0.0000000000E+00      1          
hcond1_0019            log                    factor                1.0000000000E+00      1.0000000000E-02      1.0000000000E+02       hcond1                1.0000000000E+00      0.0000000000E+00      1          
hcond1_0020            log                    factor                1.0000000000E+00      1.0000000000E-02      1.0000000000E+02       hcond1                1.0000000000E+00      0.0000000000E+00      1          
hcond1_0021            log                    factor                1.0000000000E+00      1.0000000000E-02      1.0000000000E+02       hcond1                1.0000000000E+00      0.0000000000E+00      1          
hcond1_0022            log                    factor                1.0000000000E+00      1.0000000000E-02      1.0000000000E+02       hcond1                1.0000000000E+00      0.0000000000E+00      1          
hcond1_0023            log                    factor                1.0000000000E+00      1.0000000000E-02      1.0000000000E+02       hcond1                1.0000000000E+00      0.0000000000E+00      1          
hcond1_0024            log                    factor                1.0000000000E+00      1.0000000000E-02      1.0000000000E+02       hcond1                1.0000000000E+00      0.0000000000E+00      1          
hcond1_0025            log                    factor                1.0000000000E+00      1.0000000000E-02      1.0000000000E+02       hcond1                1.0000000000E+00      0.0000000000E+00      1          
hcond1_0026            log                    factor                1.0000000000E+00      1.0000000000E-02      1.0000000000E+02       hcond1                1.0000000000E+00      0.0000000000E+00      1          
hcond1_0027            log                    factor                1.0000000000E+00      1.0000000000E-02      1.0000000000E+02       hcond1                1.0000000000E+00      0.0000000000E+00      1          
hcond1_0028            log                    factor                1.0000000000E+00      1.0000000000E-02      1.0000000000E+02       hcond1                1.0000000000E+00      0.0000000000E+00      1          
hcond1_0029            log                    factor                1.0000000000E+00      1.0000000000E-02      1.0000000000E+02       hcond1                1.0000000000E+00      0.0000000000E+00      1          
hcond1_0030            log                    factor                1.0000000000E+00      1.0000000000E-02      1.0000000000E+02       hcond1                1.0000000000E+00      0.0000000000E+00      1          
hcond1_0031            log                    factor                1.0000000000E+00      1.0000000000E-02      1.0000000000E+02       hcond1                1.0000000000E+00      0.0000000000E+00      1          
hcond1_0032            log                    factor                1.0000000000E+00      1.0000000000E-02      1.0000000000E+02       hcond1                1.0000000000E+00      0.0000000000E+00      1          
hcond1_0033            log                    factor                1.0000000000E+00      1.0000000000E-02      1.0000000000E+02       hcond1                1.0000000000E+00      0.0000000000E+00      1          
hcond1_0034            log                    factor                1.0000000000E+00      1.0000000000E-02      1.0000000000E+02       hcond1                1.0000000000E+00      0.0000000000E+00      1          
hcond1_0035            log                    factor                1.0000000000E+00      1.0000000000E-02      1.0000000000E+02       hcond1                1.0000000000E+00      0.0000000000E+00      1          
hcond1_0036            log                    factor                1.0000000000E+00      1.0000000000E-02      1.0000000000E+02       hcond1                1.0000000000E+00      0.0000000000E+00      1          
hcond1_0037            log                    factor                1.0000000000E+00      1.0000000000E-02      1.0000000000E+02       hcond1                1.0000000000E+00      0.0000000000E+00      1          
hcond1_0038            log                    factor                1.0000000000E+00      1.0000000000E-02      1.0000000000E+02       hcond1                1.0000000000E+00      0.0000000000E+00      1          
hcond1_0039            log                    factor                1.0000000000E+00      1.0000000000E-02      1.0000000000E+02       hcond1                1.0000000000E+00      0.0000000000E+00      1          
hcond1_0040            log                    factor                1.0000000000E+00      1.0000000000E-02      1.0000000000E+02       hcond1                1.0000000000E+00      0.0000000000E+00      1          
hk0000000              log                    factor                1.0000000000E+00      1.0000000000E-02      1.0000000000E+02       grhk0                 1.0000000000E+00      0.0000000000E+00      1          
hk0000001              log                    factor                1.0000000000E+00      1.0000000000E-02      1.0000000000E+02       grhk0                 1.0000000000E+00      0.0000000000E+00      1          
hk0000002              log                    factor                1.0000000000E+00      1.0000000000E-02      1.0000000000E+02       grhk0                 1.0000000000E+00      0.0000000000E+00      1          
hk0000003              log                    factor                1.0000000000E+00      1.0000000000E-02      1.0000000000E+02       grhk0                 1.0000000000E+00      0.0000000000E+00      1          
hk0000004              log                    factor                1.0000000000E+00      1.0000000000E-02      1.0000000000E+02       grhk0                 1.0000000000E+00      0.0000000000E+00      1          
hk0000005              log                    factor                1.0000000000E+00      1.0000000000E-02      1.0000000000E+02       grhk0                 1.0000000000E+00      0.0000000000E+00      1          
hk0000006              log                    factor                1.0000000000E+00      1.0000000000E-02      1.0000000000E+02       grhk0                 1.0000000000E+00      0.0000000000E+00      1          
hk0000007              log                    factor                1.0000000000E+00      1.0000000000E-02      1.0000000000E+02       grhk0                 1.0000000000E+00      0.0000000000E+00      1          
hk0000008              log                    factor                1.0000000000E+00      1.0000000000E-02      1.0000000000E+02       grhk0                 1.0000000000E+00      0.0000000000E+00      1          
hk0000009              log                    factor                1.0000000000E+00      1.0000000000E-02      1.0000000000E+02       grhk0                 1.0000000000E+00      0.0000000000E+00      1          
hk0000010              log                    factor                1.0000000000E+00      1.0000000000E-02      1.0000000000E+02       grhk0                 1.0000000000E+00      0.0000000000E+00      1          
hk0000011              log                    factor                1.0000000000E+00      1.0000000000E-02      1.0000000000E+02       grhk0                 1.0000000000E+00      0.0000000000E+00      1          
hk0000012              log                    factor                1.0000000000E+00      1.0000000000E-02      1.0000000000E+02       grhk0                 1.0000000000E+00      0.0000000000E+00      1          
hk0000013              log                    factor                1.0000000000E+00      1.0000000000E-02      1.0000000000E+02       grhk0                 1.0000000000E+00      0.0000000000E+00      1          
hk0000014              log                    factor                1.0000000000E+00      1.0000000000E-02      1.0000000000E+02       grhk0                 1.0000000000E+00      0.0000000000E+00      1          
hk0000015              log                    factor                1.0000000000E+00      1.0000000000E-02      1.0000000000E+02       grhk0                 1.0000000000E+00      0.0000000000E+00      1          
hk0000016              log                    factor                1.0000000000E+00      1.0000000000E-02      1.0000000000E+02       grhk0                 1.0000000000E+00      0.0000000000E+00      1          
hk0000017              log                    factor                1.0000000000E+00      1.0000000000E-02      1.0000000000E+02       grhk0                 1.0000000000E+00      0.0000000000E+00      1          
hk0000018              log                    factor                1.0000000000E+00      1.0000000000E-02      1.0000000000E+02       grhk0                 1.0000000000E+00      0.0000000000E+00      1          
hk0000019              log                    factor                1.0000000000E+00      1.0000000000E-02      1.0000000000E+02       grhk0                 1.0000000000E+00      0.0000000000E+00      1          
hk0001000              log                    factor                1.0000000000E+00      1.0000000000E-02      1.0000000000E+02       grhk0                 1.0000000000E+00      0.0000000000E+00      1          
hk0001001              log                    factor                1.0000000000E+00      1.0000000000E-02      1.0000000000E+02       grhk0                 1.0000000000E+00      0.0000000000E+00      1          
hk0001002              log                    factor                1.0000000000E+00      1.0000000000E-02      1.0000000000E+02       grhk0                 1.0000000000E+00      0.0000000000E+00      1          
hk0001003              log                    factor                1.0000000000E+00      1.0000000000E-02      1.0000000000E+02       grhk0                 1.0000000000E+00      0.0000000000E+00      1          
hk0001004              log                    factor                1.0000000000E+00      1.0000000000E-02      1.0000000000E+02       grhk0                 1.0000000000E+00      0.0000000000E+00      1          
hk0001005              log                    factor                1.0000000000E+00      1.0000000000E-02      1.0000000000E+02       grhk0                 1.0000000000E+00      0.0000000000E+00      1          
hk0001006              log                    factor                1.0000000000E+00      1.0000000000E-02      1.0000000000E+02       grhk0                 1.0000000000E+00      0.0000000000E+00      1          
hk0001007              log                    factor                1.0000000000E+00      1.0000000000E-02      1.0000000000E+02       grhk0                 1.0000000000E+00      0.0000000000E+00      1          
hk0001008              log                    factor                1.0000000000E+00      1.0000000000E-02      1.0000000000E+02       grhk0                 1.0000000000E+00      0.0000000000E+00      1          
hk0001009              log                    factor                1.0000000000E+00      1.0000000000E-02      1.0000000000E+02       grhk0                 1.0000000000E+00      0.0000000000E+00      1          
hk0001010              log                    factor                1.0000000000E+00      1.0000000000E-02      1.0000000000E+02       grhk0                 1.0000000000E+00      0.0000000000E+00      1          
hk0001011              log                    factor                1.0000000000E+00      1.0000000000E-02      1.0000000000E+02       grhk0                 1.0000000000E+00      0.0000000000E+00      1          
hk0001012              log                    factor                1.0000000000E+00      1.0000000000E-02      1.0000000000E+02       grhk0                 1.0000000000E+00      0.0000000000E+00      1          
hk0001013              log                    factor                1.0000000000E+00      1.0000000000E-02      1.0000000000E+02       grhk0                 1.0000000000E+00      0.0000000000E+00      1          
hk0001014              log                    factor                1.0000000000E+00      1.0000000000E-02      1.0000000000E+02       grhk0                 1.0000000000E+00      0.0000000000E+00      1          
hk0001015              log                    factor                1.0000000000E+00      1.0000000000E-02      1.0000000000E+02       grhk0                 1.0000000000E+00      0.0000000000E+00      1          
hk0001016              log                    factor                1.0000000000E+00      1.0000000000E-02      1.0000000000E+02       grhk0                 1.0000000000E+00      0.0000000000E+00      1          
hk0001017              log                    factor                1.0000000000E+00      1.0000000000E-02      1.0000000000E+02       grhk0                 1.0000000000E+00      0.0000000000E+00      1          
hk0001018              log                    factor                1.0000000000E+00      1.0000000000E-02      1.0000000000E+02       grhk0                 1.0000000000E+00      0.0000000000E+00      1          
hk0001019              log                    factor                1.0000000000E+00      1.0000000000E-02      1.0000000000E+02       grhk0                 1.0000000000E+00      0.0000000000E+00      1          
hk0002000              log                    factor                1.0000000000E+00      1.0000000000E-02      1.0000000000E+02       grhk0                 1.0000000000E+00      0.0000000000E+00      1          
hk0002001              log                    factor                1.0000000000E+00      1.0000000000E-02      1.0000000000E+02       grhk0                 1.0000000000E+00      0.0000000000E+00      1          
hk0002002              log                    factor                1.0000000000E+00      1.0000000000E-02      1.0000000000E+02       grhk0                 1.0000000000E+00      0.0000000000E+00      1          
hk0002003              log                    factor                1.0000000000E+00      1.0000000000E-02      1.0000000000E+02       grhk0                 1.0000000000E+00      0.0000000000E+00      1          
hk0002004              log                    factor                1.0000000000E+00      1.0000000000E-02      1.0000000000E+02       grhk0                 1.0000000000E+00      0.0000000000E+00      1          
hk0002005              log                    factor                1.0000000000E+00      1.0000000000E-02      1.0000000000E+02       grhk0                 1.0000000000E+00      0.0000000000E+00      1          
hk0002006              log                    factor                1.0000000000E+00      1.0000000000E-02      1.0000000000E+02       grhk0                 1.0000000000E+00      0.0000000000E+00      1          
hk0002007              log                    factor                1.0000000000E+00      1.0000000000E-02      1.0000000000E+02       grhk0                 1.0000000000E+00      0.0000000000E+00      1          
hk0002008              log                    factor                1.0000000000E+00      1.0000000000E-02      1.0000000000E+02       grhk0                 1.0000000000E+00      0.0000000000E+00      1          
hk0002009              log                    factor                1.0000000000E+00      1.0000000000E-02      1.0000000000E+02       grhk0                 1.0000000000E+00      0.0000000000E+00      1          
hk0002010              log                    factor                1.0000000000E+00      1.0000000000E-02      1.0000000000E+02       grhk0                 1.0000000000E+00      0.0000000000E+00      1          
hk0002011              log                    factor                1.0000000000E+00      1.0000000000E-02      1.0000000000E+02       grhk0                 1.0000000000E+00      0.0000000000E+00      1          
hk0002012              log                    factor                1.0000000000E+00      1.0000000000E-02      1.0000000000E+02       grhk0                 1.0000000000E+00      0.0000000000E+00      1          
hk0002013              log                    factor                1.0000000000E+00      1.0000000000E-02      1.0000000000E+02       grhk0                 1.0000000000E+00      0.0000000000E+00      1          
hk0002014              log                    factor                1.0000000000E+00      1.0000000000E-02      1.0000000000E+02       grhk0                 1.0000000000E+00      0.0000000000E+00      1          
hk0002015              log                    factor                1.0000000000E+00      1.0000000000E-02      1.0000000000E+02       grhk0                 1.0000000000E+00      0.0000000000E+00      1          
hk0002016              log                    factor                1.0000000000E+00      1.0000000000E-02      1.0000000000E+02       grhk0                 1.0000000000E+00      0.0000000000E+00      1          
hk0002017              log                    factor                1.0000000000E+00      1.0000000000E-02      1.0000000000E+02       grhk0                 1.0000000000E+00      0.0000000000E+00      1          
hk0002018              log                    factor                1.0000000000E+00      1.0000000000E-02      1.0000000000E+02       grhk0                 1.0000000000E+00      0.0000000000E+00      1          
hk0002019              log                    factor                1.0000000000E+00      1.0000000000E-02      1.0000000000E+02       grhk0                 1.0000000000E+00      0.0000000000E+00      1          
hk0003000              log                    factor                1.0000000000E+00      1.0000000000E-02      1.0000000000E+02       grhk0                 1.0000000000E+00      0.0000000000E+00      1          
hk0003001              log                    factor                1.0000000000E+00      1.0000000000E-02      1.0000000000E+02       grhk0                 1.0000000000E+00      0.0000000000E+00      1          
hk0003002              log                    factor                1.0000000000E+00      1.0000000000E-02      1.0000000000E+02       grhk0                 1.0000000000E+00      0.0000000000E+00      1          
hk0003003              log                    factor                1.0000000000E+00      1.0000000000E-02      1.0000000000E+02       grhk0                 1.0000000000E+00      0.0000000000E+00      1          
hk0003004              log                    factor                1.0000000000E+00      1.0000000000E-02      1.0000000000E+02       grhk0                 1.0000000000E+00      0.0000000000E+00      1          
hk0003005              log                    factor                1.0000000000E+00      1.0000000000E-02      1.0000000000E+02       grhk0                 1.0000000000E+00      0.0000000000E+00      1          
hk0003006              log                    factor                1.0000000000E+00      1.0000000000E-02      1.0000000000E+02       grhk0                 1.0000000000E+00      0.0000000000E+00      1          
hk0003007              log                    factor                1.0000000000E+00      1.0000000000E-02      1.0000000000E+02       grhk0                 1.0000000000E+00      0.0000000000E+00      1          
hk0003008              log                    factor                1.0000000000E+00      1.0000000000E-02      1.0000000000E+02       grhk0                 1.0000000000E+00      0.0000000000E+00      1          
hk0003009              log                    factor                1.0000000000E+00      1.0000000000E-02      1.0000000000E+02       grhk0                 1.0000000000E+00      0.0000000000E+00      1          
hk0003010              log                    factor                1.0000000000E+00      1.0000000000E-02      1.0000000000E+02       grhk0                 1.0000000000E+00      0.0000000000E+00      1          
hk0003011              log                    factor                1.0000000000E+00      1.0000000000E-02      1.0000000000E+02       grhk0                 1.0000000000E+00      0.0000000000E+00      1          
hk0003012              log                    factor                1.0000000000E+00      1.0000000000E-02      1.0000000000E+02       grhk0                 1.0000000000E+00      0.0000000000E+00      1          
hk0003013              log                    factor                1.0000000000E+00      1.0000000000E-02      1.0000000000E+02       grhk0                 1.0000000000E+00      0.0000000000E+00      1          
hk0003014              log                    factor                1.0000000000E+00      1.0000000000E-02      1.0000000000E+02       grhk0                 1.0000000000E+00      0.0000000000E+00      1          
hk0003015              log                    factor                1.0000000000E+00      1.0000000000E-02      1.0000000000E+02       grhk0                 1.0000000000E+00      0.0000000000E+00      1          
hk0003016              log                    factor                1.0000000000E+00      1.0000000000E-02      1.0000000000E+02       grhk0                 1.0000000000E+00      0.0000000000E+00      1          
hk0003017              log                    factor                1.0000000000E+00      1.0000000000E-02      1.0000000000E+02       grhk0                 1.0000000000E+00      0.0000000000E+00      1          
hk0003018              log                    factor                1.0000000000E+00      1.0000000000E-02      1.0000000000E+02       grhk0                 1.0000000000E+00      0.0000000000E+00      1          
hk0003019              log                    factor                1.0000000000E+00      1.0000000000E-02      1.0000000000E+02       grhk0                 1.0000000000E+00      0.0000000000E+00      1          
hk0004000              log                    factor                1.0000000000E+00      1.0000000000E-02      1.0000000000E+02       grhk0                 1.0000000000E+00      0.0000000000E+00      1          
hk0004001              log                    factor                1.0000000000E+00      1.0000000000E-02      1.0000000000E+02       grhk0                 1.0000000000E+00      0.0000000000E+00      1          