# Name file for MT3DMS, generated by Flopy version 3.2.9.
LIST              16  freyberg.mt3d.list
FTL               10  mt3d_link.ftl FREE
BTN               31  freyberg.mt3d.btn 
GCG               35  freyberg.mt3d.gcg 
RCT               36  freyberg.mt3d.rct 
ADV               32  freyberg.mt3d.adv 
SSM               34  freyberg.mt3d.ssm 
SFT               19  freyberg.mt3d.sft 
DATA            1001  freyberg.mt3d
