pcf
* control data
             restart          estimation
      7027      4719        18         0        49         0
        16         7              single               point         1         0         0          noobsreref
   2.000000E+01  -3.000000E+00   3.000000E-01   1.000000E-02        -7       999          lamforgive        noderforgive
   1.000000E+01   1.000000E+01   1.000000E-03         0         0
   1.000000E-01         1   1.100000E+00               noaui          nosenreuse        noboundscale
         0   1.000000E-02         3         3   1.000000E-02         3   0.000000E+00         1  -1.000000E+00
         0         0         0         0             jcosave          verboserec          jcosaveitn          reisaveitn          parsaveitn        noparsaverun
* singular value decomposition
         1
  10000000    1.000000E-06
1
* parameter groups
k0                      relative              1.0000000000E-02       0.0  switch                2.0000000000E+00       parabolic             1.0000000000E-05      5.0000000000E-01       smaller              
k1                      relative              1.0000000000E-02       0.0  switch                2.0000000000E+00       parabolic             1.0000000000E-05      5.0000000000E-01       smaller              
k2                      relative              1.0000000000E-02       0.0  switch                2.0000000000E+00       parabolic             1.0000000000E-05      5.0000000000E-01       smaller              
grsc10                  relative              1.0000000000E-02       0.0  switch                2.0000000000E+00       parabolic             1.0000000000E-05      5.0000000000E-01       smaller              
grrc110                 relative              1.0000000000E-02       0.0  switch                2.0000000000E+00       parabolic             1.0000000000E-05      5.0000000000E-01       smaller              
grrech1                 relative              1.0000000000E-02       0.0  switch                2.0000000000E+00       parabolic             1.0000000000E-05      5.0000000000E-01       smaller              
grprst0                 relative              1.0000000000E-02       0.0  switch                2.0000000000E+00       parabolic             1.0000000000E-05      5.0000000000E-01       smaller              
grrech0                 relative              1.0000000000E-02       0.0  switch                2.0000000000E+00       parabolic             1.0000000000E-05      5.0000000000E-01       smaller              
grhk0                   relative              1.0000000000E-02       0.0  switch                2.0000000000E+00       parabolic             1.0000000000E-05      5.0000000000E-01       smaller              
grrech2                 relative              1.0000000000E-02       0.0  switch                2.0000000000E+00       parabolic             1.0000000000E-05      5.0000000000E-01       smaller              
hcond1                  relative              1.0000000000E-02       0.0  switch                2.0000000000E+00       parabolic             1.0000000000E-05      5.0000000000E-01       smaller              
rech4_cn                relative              1.0000000000E-02       0.0  switch                2.0000000000E+00       parabolic             1.0000000000E-05      5.0000000000E-01       smaller              
hk1_cn                  relative              1.0000000000E-02       0.0  switch                2.0000000000E+00       parabolic             1.0000000000E-05      5.0000000000E-01       smaller              
sc11_cn                 relative              1.0000000000E-02       0.0  switch                2.0000000000E+00       parabolic             1.0000000000E-05      5.0000000000E-01       smaller              
rc111_cn                relative              1.0000000000E-02       0.0  switch                2.0000000000E+00       parabolic             1.0000000000E-05      5.0000000000E-01       smaller              
prst1_cn                relative              1.0000000000E-02       0.0  switch                2.0000000000E+00       parabolic             1.0000000000E-05      5.0000000000E-01       smaller              
rech5_cn                relative              1.0000000000E-02       0.0  switch                2.0000000000E+00       parabolic             1.0000000000E-05      5.0000000000E-01       smaller              
rech3_cn                relative              1.0000000000E-02       0.0  switch                2.0000000000E+00       parabolic             1.0000000000E-05      5.0000000000E-01       smaller
* parameter data
hk0000000              log                    factor                1.0000000000E+00      1.0000000000E-02      1.0000000000E+02       grhk0                 1.0000000000E+00      0.0000000000E+00      1          
hk0000001              log                    factor                1.0000000000E+00      1.0000000000E-02      1.0000000000E+02       grhk0                 1.0000000000E+00      0.0000000000E+00      1          
hk0000002              log                    factor                1.0000000000E+00      1.0000000000E-02      1.0000000000E+02       grhk0                 1.0000000000E+00      0.0000000000E+00      1          
hk0000003              log                    factor                1.0000000000E+00      1.0000000000E-02      1.0000000000E+02       grhk0                 1.0000000000E+00      0.0000000000E+00      1          
hk0000004              log                    factor                1.0000000000E+00      1.0000000000E-02      1.0000000000E+02       grhk0                 1.0000000000E+00      0.0000000000E+00      1          
hk0000005              log                    factor                1.0000000000E+00      1.0000000000E-02      1.0000000000E+02       grhk0                 1.0000000000E+00      0.0000000000E+00      1          
hk0000006              log                    factor                1.0000000000E+00      1.0000000000E-02      1.0000000000E+02       grhk0                 1.0000000000E+00      0.0000000000E+00      1          
hk0000007              log                    factor                1.0000000000E+00      1.0000000000E-02      1.0000000000E+02       grhk0                 1.0000000000E+00      0.0000000000E+00      1          
hk0000008              log                    factor                1.0000000000E+00      1.0000000000E-02      1.0000000000E+02       grhk0                 1.0000000000E+00      0.0000000000E+00      1          
hk0000009              log                    factor                1.0000000000E+00      1.0000000000E-02      1.0000000000E+02       grhk0                 1.0000000000E+00      0.0000000000E+00      1          
hk0000010              log                    factor                1.0000000000E+00      1.0000000000E-02      1.0000000000E+02       grhk0                 1.0000000000E+00      0.0000000000E+00      1          
hk0000011              log                    factor                1.0000000000E+00      1.0000000000E-02      1.0000000000E+02       grhk0                 1.0000000000E+00      0.0000000000E+00      1          
hk0000012              log                    factor                1.0000000000E+00      1.0000000000E-02      1.0000000000E+02       grhk0                 1.0000000000E+00      0.0000000000E+00      1          
hk0000013              log                    factor                1.0000000000E+00      1.0000000000E-02      1.0000000000E+02       grhk0                 1.0000000000E+00      0.0000000000E+00      1          
hk0000014              log                    factor                1.0000000000E+00      1.0000000000E-02      1.0000000000E+02       grhk0                 1.0000000000E+00      0.0000000000E+00      1          
hk0000015              log                    factor                1.0000000000E+00      1.0000000000E-02      1.0000000000E+02       grhk0                 1.0000000000E+00      0.0000000000E+00      1          
hk0000016              log                    factor                1.0000000000E+00      1.0000000000E-02      1.0000000000E+02       grhk0                 1.0000000000E+00      0.0000000000E+00      1          
hk0000017              log                    factor                1.0000000000E+00      1.0000000000E-02      1.0000000000E+02       grhk0                 1.0000000000E+00      0.0000000000E+00      1          
hk0000018              log                    factor                1.0000000000E+00      1.0000000000E-02      1.0000000000E+02       grhk0                 1.0000000000E+00      0.0000000000E+00      1          
hk0000019              log                    factor                1.0000000000E+00      1.0000000000E-02      1.0000000000E+02       grhk0                 1.0000000000E+00      0.0000000000E+00      1          
hk0001000              log                    factor                1.0000000000E+00      1.0000000000E-02      1.0000000000E+02       grhk0                 1.0000000000E+00      0.0000000000E+00      1          
hk0001001              log                    factor                1.0000000000E+00      1.0000000000E-02      1.0000000000E+02       grhk0                 1.0000000000E+00      0.0000000000E+00      1          
hk0001002              log                    factor                1.0000000000E+00      1.0000000000E-02      1.0000000000E+02       grhk0                 1.0000000000E+00      0.0000000000E+00      1          
hk0001003              log                    factor                1.0000000000E+00      1.0000000000E-02      1.0000000000E+02       grhk0                 1.0000000000E+00      0.0000000000E+00      1          
hk0001004              log                    factor                1.0000000000E+00      1.0000000000E-02      1.0000000000E+02       grhk0                 1.0000000000E+00      0.0000000000E+00      1          
hk0001005              log                    factor                1.0000000000E+00      1.0000000000E-02      1.0000000000E+02       grhk0                 1.0000000000E+00      0.0000000000E+00      1          
hk0001006              log                    factor                1.0000000000E+00      1.0000000000E-02      1.0000000000E+02       grhk0                 1.0000000000E+00      0.0000000000E+00      1          
hk0001007              log                    factor                1.0000000000E+00      1.0000000000E-02      1.0000000000E+02       grhk0                 1.0000000000E+00      0.0000000000E+00      1          
hk0001008              log                    factor                1.0000000000E+00      1.0000000000E-02      1.0000000000E+02       grhk0                 1.0000000000E+00      0.0000000000E+00      1          
hk0001009              log                    factor                1.0000000000E+00      1.0000000000E-02      1.0000000000E+02       grhk0                 1.0000000000E+00      0.0000000000E+00      1          
hk0001010              log                    factor                1.0000000000E+00      1.0000000000E-02      1.0000000000E+02       grhk0                 1.0000000000E+00      0.0000000000E+00      1          
hk0001011              log                    factor                1.0000000000E+00      1.0000000000E-02      1.0000000000E+02       grhk0                 1.0000000000E+00      0.0000000000E+00      1          
hk0001012              log                    factor                1.0000000000E+00      1.0000000000E-02      1.0000000000E+02       grhk0                 1.0000000000E+00      0.0000000000E+00      1          
hk0001013              log                    factor                1.0000000000E+00      1.0000000000E-02      1.0000000000E+02       grhk0                 1.0000000000E+00      0.0000000000E+00      1          
hk0001014              log                    factor                1.0000000000E+00      1.0000000000E-02      1.0000000000E+02       grhk0                 1.0000000000E+00      0.0000000000E+00      1          
hk0001015              log                    factor                1.0000000000E+00      1.0000000000E-02      1.0000000000E+02       grhk0                 1.0000000000E+00      0.0000000000E+00      1          
hk0001016              log                    factor                1.0000000000E+00      1.0000000000E-02      1.0000000000E+02       grhk0                 1.0000000000E+00      0.0000000000E+00      1          
hk0001017              log                    factor                1.0000000000E+00      1.0000000000E-02      1.0000000000E+02       grhk0                 1.0000000000E+00      0.0000000000E+00      1          
hk0001018              log                    factor                1.0000000000E+00      1.0000000000E-02      1.0000000000E+02       grhk0                 1.0000000000E+00      0.0000000000E+00      1          
hk0001019              log                    factor                1.0000000000E+00      1.0000000000E-02      1.0000000000E+02       grhk0                 1.0000000000E+00      0.0000000000E+00      1          
hk0002000              log                    factor                1.0000000000E+00      1.0000000000E-02      1.0000000000E+02       grhk0                 1.0000000000E+00      0.0000000000E+00      1          
hk0002001              log                    factor                1.0000000000E+00      1.0000000000E-02      1.0000000000E+02       grhk0                 1.0000000000E+00      0.0000000000E+00      1          
hk0002002              log                    factor                1.0000000000E+00      1.0000000000E-02      1.0000000000E+02       grhk0                 1.0000000000E+00      0.0000000000E+00      1          
hk0002003              log                    factor                1.0000000000E+00      1.0000000000E-02      1.0000000000E+02       grhk0                 1.0000000000E+00      0.0000000000E+00      1          
hk0002004              log                    factor                1.0000000000E+00      1.0000000000E-02      1.0000000000E+02       grhk0                 1.0000000000E+00      0.0000000000E+00      1          
hk0002005              log                    factor                1.0000000000E+00      1.0000000000E-02      1.0000000000E+02       grhk0                 1.0000000000E+00      0.0000000000E+00      1          
hk0002006              log                    factor                1.0000000000E+00      1.0000000000E-02      1.0000000000E+02       grhk0                 1.0000000000E+00      0.0000000000E+00      1          
hk0002007              log                    factor                1.0000000000E+00      1.0000000000E-02      1.0000000000E+02       grhk0                 1.0000000000E+00      0.0000000000E+00      1          
hk0002008              log                    factor                1.0000000000E+00      1.0000000000E-02      1.0000000000E+02       grhk0                 1.0000000000E+00      0.0000000000E+00      1          
hk0002009              log                    factor                1.0000000000E+00      1.0000000000E-02      1.0000000000E+02       grhk0                 1.0000000000E+00      0.0000000000E+00      1          
hk0002010              log                    factor                1.0000000000E+00      1.0000000000E-02      1.0000000000E+02       grhk0                 1.0000000000E+00      0.0000000000E+00      1          
hk0002011              log                    factor                1.0000000000E+00      1.0000000000E-02      1.0000000000E+02       grhk0                 1.0000000000E+00      0.0000000000E+00      1          
hk0002012              log                    factor                1.0000000000E+00      1.0000000000E-02      1.0000000000E+02       grhk0                 1.0000000000E+00      0.0000000000E+00      1          
hk0002013              log                    factor                1.0000000000E+00      1.0000000000E-02      1.0000000000E+02       grhk0                 1.0000000000E+00      0.0000000000E+00      1          
hk0002014              log                    factor                1.0000000000E+00      1.0000000000E-02      1.0000000000E+02       grhk0                 1.0000000000E+00      0.0000000000E+00      1          
hk0002015              log                    factor                1.0000000000E+00      1.0000000000E-02      1.0000000000E+02       grhk0                 1.0000000000E+00      0.0000000000E+00      1          
hk0002016              log                    factor                1.0000000000E+00      1.0000000000E-02      1.0000000000E+02       grhk0                 1.0000000000E+00      0.0000000000E+00      1          
hk0002017              log                    factor                1.0000000000E+00      1.0000000000E-02      1.0000000000E+02       grhk0                 1.0000000000E+00      0.0000000000E+00      1          
hk0002018              log                    factor                1.0000000000E+00      1.0000000000E-02      1.0000000000E+02       grhk0                 1.0000000000E+00      0.0000000000E+00      1          
hk0002019              log                    factor                1.0000000000E+00      1.0000000000E-02      1.0000000000E+02       grhk0                 1.0000000000E+00      0.0000000000E+00      1          
hk0003000              log                    factor                1.0000000000E+00      1.0000000000E-02      1.0000000000E+02       grhk0                 1.0000000000E+00      0.0000000000E+00      1          
hk0003001              log                    factor                1.0000000000E+00      1.0000000000E-02      1.0000000000E+02       grhk0                 1.0000000000E+00      0.0000000000E+00      1          
hk0003002              log                    factor                1.0000000000E+00      1.0000000000E-02      1.0000000000E+02       grhk0                 1.0000000000E+00      0.0000000000E+00      1          
hk0003003              log                    factor                1.0000000000E+00      1.0000000000E-02      1.0000000000E+02       grhk0                 1.0000000000E+00      0.0000000000E+00      1          
hk0003004              log                    factor                1.0000000000E+00      1.0000000000E-02      1.0000000000E+02       grhk0                 1.0000000000E+00      0.0000000000E+00      1          
hk0003005              log                    factor                1.0000000000E+00      1.0000000000E-02      1.0000000000E+02       grhk0                 1.0000000000E+00      0.0000000000E+00      1          
hk0003006              log                    factor                1.0000000000E+00      1.0000000000E-02      1.0000000000E+02       grhk0                 1.0000000000E+00      0.0000000000E+00      1          
hk0003007              log                    factor                1.0000000000E+00      1.0000000000E-02      1.0000000000E+02       grhk0                 1.0000000000E+00      0.0000000000E+00      1          
hk0003008              log                    factor                1.0000000000E+00      1.0000000000E-02      1.0000000000E+02       grhk0                 1.0000000000E+00      0.0000000000E+00      1          
hk0003009              log                    factor                1.0000000000E+00      1.0000000000E-02      1.0000000000E+02       grhk0                 1.0000000000E+00      0.0000000000E+00      1          
hk0003010              log                    factor                1.0000000000E+00      1.0000000000E-02      1.0000000000E+02       grhk0                 1.0000000000E+00      0.0000000000E+00      1          
hk0003011              log                    factor                1.0000000000E+00      1.0000000000E-02      1.0000000000E+02       grhk0                 1.0000000000E+00      0.0000000000E+00      1          
hk0003012              log                    factor                1.0000000000E+00      1.0000000000E-02      1.0000000000E+02       grhk0                 1.0000000000E+00      0.0000000000E+00      1          
hk0003013              log                    factor                1.0000000000E+00      1.0000000000E-02      1.0000000000E+02       grhk0                 1.0000000000E+00      0.0000000000E+00      1          
hk0003014              log                    factor                1.0000000000E+00      1.0000000000E-02      1.0000000000E+02       grhk0                 1.0000000000E+00      0.0000000000E+00      1          
hk0003015              log                    factor                1.0000000000E+00      1.0000000000E-02      1.0000000000E+02       grhk0                 1.0000000000E+00      0.0000000000E+00      1          
hk0003016              log                    factor                1.0000000000E+00      1.0000000000E-02      1.0000000000E+02       grhk0                 1.0000000000E+00      0.0000000000E+00      1          
hk0003017              log                    factor                1.0000000000E+00      1.0000000000E-02      1.0000000000E+02       grhk0                 1.0000000000E+00      0.0000000000E+00      1          
hk0003018              log                    factor                1.0000000000E+00      1.0000000000E-02      1.0000000000E+02       grhk0                 1.0000000000E+00      0.0000000000E+00      1          
hk0003019              log                    factor                1.0000000000E+00      1.0000000000E-02      1.0000000000E+02       grhk0                 1.0000000000E+00      0.0000000000E+00      1          
hk0004000              log                    factor                1.0000000000E+00      1.0000000000E-02      1.0000000000E+02       grhk0                 1.0000000000E+00      0.0000000000E+00      1          
hk0004001              log                    factor                1.0000000000E+00      1.0000000000E-02      1.0000000000E+02       grhk0                 1.0000000000E+00      0.0000000000E+00      1          
hk0004002              log                    factor                1.0000000000E+00      1.0000000000E-02      1.0000000000E+02       grhk0                 1.0000000000E+00      0.0000000000E+00      1          
hk0004003              log                    factor                1.0000000000E+00      1.0000000000E-02      1.0000000000E+02       grhk0                 1.0000000000E+00      0.0000000000E+00      1          
hk0004004              log                    factor                1.0000000000E+00      1.0000000000E-02      1.0000000000E+02       grhk0                 1.0000000000E+00      0.0000000000E+00      1          
hk0004005              log                    factor                1.0000000000E+00      1.0000000000E-02      1.0000000000E+02       grhk0                 1.0000000000E+00      0.0000000000E+00      1          
hk0004006              log                    factor                1.0000000000E+00      1.0000000000E-02      1.0000000000E+02       grhk0                 1.0000000000E+00      0.0000000000E+00      1          
hk0004007              log                    factor                1.0000000000E+00      1.0000000000E-02      1.0000000000E+02       grhk0                 1.0000000000E+00      0.0000000000E+00      1          
hk0004008              log                    factor                1.0000000000E+00      1.0000000000E-02      1.0000000000E+02       grhk0                 1.0000000000E+00      0.0000000000E+00      1          
hk0004009              log                    factor                1.0000000000E+00      1.0000000000E-02      1.0000000000E+02       grhk0                 1.0000000000E+00      0.0000000000E+00      1          
hk0004010              log                    factor                1.0000000000E+00      1.0000000000E-02      1.0000000000E+02       grhk0                 1.0000000000E+00      0.0000000000E+00      1          
hk0004011              log                    factor                1.0000000000E+00      1.0000000000E-02      1.0000000000E+02       grhk0                 1.0000000000E+00      0.0000000000E+00      1          
hk0004012              log                    factor                1.0000000000E+00      1.0000000000E-02      1.0000000000E+02       grhk0                 1.0000000000E+00      0.0000000000E+00      1          
hk0004013              log                    factor                1.0000000000E+00      1.0000000000E-02      1.0000000000E+02       grhk0                 1.0000000000E+00      0.0000000000E+00      1          
hk0004014              log                    factor                1.0000000000E+00      1.0000000000E-02      1.0000000000E+02       grhk0                 1.0000000000E+00      0.0000000000E+00      1          
hk0004015              log                    factor                1.0000000000E+00      1.0000000000E-02      1.0000000000E+02       grhk0                 1.0000000000E+00      0.0000000000E+00      1          
hk0004016              log                    factor                1.0000000000E+00      1.0000000000E-02      1.0000000000E+02       grhk0                 1.0000000000E+00      0.0000000000E+00      1          
hk0004017              log                    factor                1.0000000000E+00      1.0000000000E-02      1.0000000000E+02       grhk0                 1.0000000000E+00      0.0000000000E+00      1          
hk0004018              log                    factor                1.0000000000E+00      1.0000000000E-02      1.0000000000E+02       grhk0                 1.0000000000E+00      0.0000000000E+00      1          
hk0004019              log                    factor                1.0000000000E+00      1.0000000000E-02      1.0000000000E+02       grhk0                 1.0000000000E+00      0.0000000000E+00      1          
hk0005000              log                    factor                1.0000000000E+00      1.0000000000E-02      1.0000000000E+02       grhk0                 1.0000000000E+00      0.0000000000E+00      1          
hk0005001              log                    factor                1.0000000000E+00      1.0000000000E-02      1.0000000000E+02       grhk0                 1.0000000000E+00      0.0000000000E+00      1          
hk0005002              log                    factor                1.0000000000E+00      1.0000000000E-02      1.0000000000E+02       grhk0                 1.0000000000E+00      0.0000000000E+00      1          
hk0005003              log                    factor                1.0000000000E+00      1.0000000000E-02      1.0000000000E+02       grhk0                 1.0000000000E+00      0.0000000000E+00      1          
hk0005004              log                    factor                1.0000000000E+00      1.0000000000E-02      1.0000000000E+02       grhk0                 1.0000000000E+00      0.0000000000E+00      1          
hk0005005              log                    factor                1.0000000000E+00      1.0000000000E-02      1.0000000000E+02       grhk0                 1.0000000000E+00      0.0000000000E+00      1          
hk0005006              log                    factor                1.0000000000E+00      1.0000000000E-02      1.0000000000E+02       grhk0                 1.0000000000E+00      0.0000000000E+00      1          
hk0005007              log                    factor                1.0000000000E+00      1.0000000000E-02      1.0000000000E+02       grhk0                 1.0000000000E+00      0.0000000000E+00      1          
hk0005008              log                    factor                1.0000000000E+00      1.0000000000E-02      1.0000000000E+02       grhk0                 1.0000000000E+00      0.0000000000E+00      1          
hk0005009              log                    factor                1.0000000000E+00      1.0000000000E-02      1.0000000000E+02       grhk0                 1.0000000000E+00      0.0000000000E+00      1          
hk0005010              log                    factor                1.0000000000E+00      1.0000000000E-02      1.0000000000E+02       grhk0                 1.0000000000E+00      0.0000000000E+00      1          
hk0005011              log                    factor                1.0000000000E+00      1.0000000000E-02      1.0000000000E+02       grhk0                 1.0000000000E+00      0.0000000000E+00      1          
hk0005012              log                    factor                1.0000000000E+00      1.0000000000E-02      1.0000000000E+02       grhk0                 1.0000000000E+00      0.0000000000E+00      1          
hk0005013              log                    factor                1.0000000000E+00      1.0000000000E-02      1.0000000000E+02       grhk0                 1.0000000000E+00      0.0000000000E+00      1          
hk0005014              log                    factor                1.0000000000E+00      1.0000000000E-02      1.0000000000E+02       grhk0                 1.0000000000E+00      0.0000000000E+00      1          
hk0005015              log                    factor                1.0000000000E+00      1.0000000000E-02      1.0000000000E+02       grhk0                 1.0000000000E+00      0.0000000000E+00      1          
hk0005016              log                    factor                1.0000000000E+00      1.0000000000E-02      1.0000000000E+02       grhk0                 1.0000000000E+00      0.0000000000E+00      1          
hk0005017              log                    factor                1.0000000000E+00      1.0000000000E-02      1.0000000000E+02       grhk0                 1.0000000000E+00      0.0000000000E+00      1          
hk0005018              log                    factor                1.0000000000E+00      1.0000000000E-02      1.0000000000E+02       grhk0                 1.0000000000E+00      0.0000000000E+00      1          