pcf
* control data
             restart      regularization
       705      1572         1       705        48         0
         1         7              single               point         1         0         0          noobsreref
   2.000000E+01  -3.000000E+00   3.000000E-01   1.000000E-02        -7       999          lamforgive        noderforgive
   1.000000E+01   1.000000E+01   1.000000E-03         0         0
   1.000000E-01         1   1.100000E+00               noaui          nosenreuse        noboundscale
         2   1.000000E-02         3         3   1.000000E-02         3   0.000000E+00         1  -1.000000E+00
         0         0         0         0             jcosave          verboserec          jcosaveitn          reisaveitn          parsaveitn        noparsaverun
* singular value decomposition
         1
  10000000    1.000000E-06
1
* parameter groups
kg                      absolute              1.0000000000E-01       0.0  switch                2.0000000000E+00       parabolic             1.0000000000E-05      5.0000000000E-01       smaller
* parameter data
k_00_00                none                   factor                0.0000000000E+00      0.0000000000E+00      1.0000000000E+01       kg                    1.0000000000E+00      0.0000000000E+00      1          
k_00_01                none                   factor                0.0000000000E+00      0.0000000000E+00      1.0000000000E+01       kg                    1.0000000000E+00      0.0000000000E+00      1          
k_00_02                none                   factor                0.0000000000E+00      0.0000000000E+00      1.0000000000E+01       kg                    1.0000000000E+00      0.0000000000E+00      1          
k_00_03                none                   factor                0.0000000000E+00      0.0000000000E+00      1.0000000000E+01       kg                    1.0000000000E+00      0.0000000000E+00      1          
k_00_04                none                   factor                0.0000000000E+00      0.0000000000E+00      1.0000000000E+01       kg                    1.0000000000E+00      0.0000000000E+00      1          
k_00_05                none                   factor                0.0000000000E+00      0.0000000000E+00      1.0000000000E+01       kg                    1.0000000000E+00      0.0000000000E+00      1          
k_00_06                none                   factor                0.0000000000E+00      0.0000000000E+00      1.0000000000E+01       kg                    1.0000000000E+00      0.0000000000E+00      1          
k_00_07                none                   factor                0.0000000000E+00      0.0000000000E+00      1.0000000000E+01       kg                    1.0000000000E+00      0.0000000000E+00      1          
k_00_08                none                   factor                0.0000000000E+00      0.0000000000E+00      1.0000000000E+01       kg                    1.0000000000E+00      0.0000000000E+00      1          
k_00_09                none                   factor                0.0000000000E+00      0.0000000000E+00      1.0000000000E+01       kg                    1.0000000000E+00      0.0000000000E+00      1          
k_00_10                none                   factor                0.0000000000E+00      0.0000000000E+00      1.0000000000E+01       kg                    1.0000000000E+00      0.0000000000E+00      1          
k_00_11                none                   factor                0.0000000000E+00      0.0000000000E+00      1.0000000000E+01       kg                    1.0000000000E+00      0.0000000000E+00      1          
k_00_12                none                   factor                0.0000000000E+00      0.0000000000E+00      1.0000000000E+01       kg                    1.0000000000E+00      0.0000000000E+00      1          
k_00_13                none                   factor                0.0000000000E+00      0.0000000000E+00      1.0000000000E+01       kg                    1.0000000000E+00      0.0000000000E+00      1          
k_00_14                none                   factor                0.0000000000E+00      0.0000000000E+00      1.0000000000E+01       kg                    1.0000000000E+00      0.0000000000E+00      1          
k_00_15                none                   factor                0.0000000000E+00      0.0000000000E+00      1.0000000000E+01       kg                    1.0000000000E+00      0.0000000000E+00      1          
k_00_16                none                   factor                0.0000000000E+00      0.0000000000E+00      1.0000000000E+01       kg                    1.0000000000E+00      0.0000000000E+00      1          
k_00_17                none                   factor                0.0000000000E+00      0.0000000000E+00      1.0000000000E+01       kg                    1.0000000000E+00      0.0000000000E+00      1          
k_00_18                none                   factor                0.0000000000E+00      0.0000000000E+00      1.0000000000E+01       kg                    1.0000000000E+00      0.0000000000E+00      1          
k_00_19                none                   factor                0.0000000000E+00      0.0000000000E+00      1.0000000000E+01       kg                    1.0000000000E+00      0.0000000000E+00      1          
k_01_00                none                   factor                0.0000000000E+00      0.0000000000E+00      1.0000000000E+01       kg                    1.0000000000E+00      0.0000000000E+00      1          
k_01_01                none                   factor                0.0000000000E+00      0.0000000000E+00      1.0000000000E+01       kg                    1.0000000000E+00      0.0000000000E+00      1          
k_01_02                none                   factor                0.0000000000E+00      0.0000000000E+00      1.0000000000E+01       kg                    1.0000000000E+00      0.0000000000E+00      1          
k_01_03                none                   factor                0.0000000000E+00      0.0000000000E+00      1.0000000000E+01       kg                    1.0000000000E+00      0.0000000000E+00      1          
k_01_04                none                   factor                0.0000000000E+00      0.0000000000E+00      1.0000000000E+01       kg                    1.0000000000E+00      0.0000000000E+00      1          
k_01_05                none                   factor                0.0000000000E+00      0.0000000000E+00      1.0000000000E+01       kg                    1.0000000000E+00      0.0000000000E+00      1          
k_01_06                none                   factor                0.0000000000E+00      0.0000000000E+00      1.0000000000E+01       kg                    1.0000000000E+00      0.0000000000E+00      1          
k_01_07                none                   factor                0.0000000000E+00      0.0000000000E+00      1.0000000000E+01       kg                    1.0000000000E+00      0.0000000000E+00      1          
k_01_08                none                   factor                0.0000000000E+00      0.0000000000E+00      1.0000000000E+01       kg                    1.0000000000E+00      0.0000000000E+00      1          
k_01_09                none                   factor                0.0000000000E+00      0.0000000000E+00      1.0000000000E+01       kg                    1.0000000000E+00      0.0000000000E+00      1          
k_01_10                none                   factor                0.0000000000E+00      0.0000000000E+00      1.0000000000E+01       kg                    1.0000000000E+00      0.0000000000E+00      1          
k_01_11                none                   factor                0.0000000000E+00      0.0000000000E+00      1.0000000000E+01       kg                    1.0000000000E+00      0.0000000000E+00      1          
k_01_12                none                   factor                0.0000000000E+00      0.0000000000E+00      1.0000000000E+01       kg                    1.0000000000E+00      0.0000000000E+00      1          
k_01_13                none                   factor                0.0000000000E+00      0.0000000000E+00      1.0000000000E+01       kg                    1.0000000000E+00      0.0000000000E+00      1          
k_01_14                none                   factor                0.0000000000E+00      0.0000000000E+00      1.0000000000E+01       kg                    1.0000000000E+00      0.0000000000E+00      1          
k_01_15                none                   factor                0.0000000000E+00      0.0000000000E+00      1.0000000000E+01       kg                    1.0000000000E+00      0.0000000000E+00      1          
k_01_16                none                   factor                0.0000000000E+00      0.0000000000E+00      1.0000000000E+01       kg                    1.0000000000E+00      0.0000000000E+00      1          
k_01_17                none                   factor                0.0000000000E+00      0.0000000000E+00      1.0000000000E+01       kg                    1.0000000000E+00      0.0000000000E+00      1          
k_01_18                none                   factor                0.0000000000E+00      0.0000000000E+00      1.0000000000E+01       kg                    1.0000000000E+00      0.0000000000E+00      1          
k_01_19                none                   factor                0.0000000000E+00      0.0000000000E+00      1.0000000000E+01       kg                    1.0000000000E+00      0.0000000000E+00      1          
k_02_00                none                   factor                0.0000000000E+00      0.0000000000E+00      1.0000000000E+01       kg                    1.0000000000E+00      0.0000000000E+00      1          
k_02_01                none                   factor                0.0000000000E+00      0.0000000000E+00      1.0000000000E+01       kg                    1.0000000000E+00      0.0000000000E+00      1          
k_02_02                none                   factor                0.0000000000E+00      0.0000000000E+00      1.0000000000E+01       kg                    1.0000000000E+00      0.0000000000E+00      1          
k_02_03                none                   factor                0.0000000000E+00      0.0000000000E+00      1.0000000000E+01       kg                    1.0000000000E+00      0.0000000000E+00      1          
k_02_04                none                   factor                0.0000000000E+00      0.0000000000E+00      1.0000000000E+01       kg                    1.0000000000E+00      0.0000000000E+00      1          
k_02_05                none                   factor                0.0000000000E+00      0.0000000000E+00      1.0000000000E+01       kg                    1.0000000000E+00      0.0000000000E+00      1          
k_02_06                none                   factor                0.0000000000E+00      0.0000000000E+00      1.0000000000E+01       kg                    1.0000000000E+00      0.0000000000E+00      1          
k_02_07                none                   factor                0.0000000000E+00      0.0000000000E+00      1.0000000000E+01       kg                    1.0000000000E+00      0.0000000000E+00      1          
k_02_08                none                   factor                0.0000000000E+00      0.0000000000E+00      1.0000000000E+01       kg                    1.0000000000E+00      0.0000000000E+00      1          
k_02_09                none                   factor                0.0000000000E+00      0.0000000000E+00      1.0000000000E+01       kg                    1.0000000000E+00      0.0000000000E+00      1          
k_02_10                none                   factor                0.0000000000E+00      0.0000000000E+00      1.0000000000E+01       kg                    1.0000000000E+00      0.0000000000E+00      1          
k_02_11                none                   factor                0.0000000000E+00      0.0000000000E+00      1.0000000000E+01       kg                    1.0000000000E+00      0.0000000000E+00      1          
k_02_12                none                   factor                0.0000000000E+00      0.0000000000E+00      1.0000000000E+01       kg                    1.0000000000E+00      0.0000000000E+00      1          
k_02_13                none                   factor                0.0000000000E+00      0.0000000000E+00      1.0000000000E+01       kg                    1.0000000000E+00      0.0000000000E+00      1          
k_02_14                none                   factor                0.0000000000E+00      0.0000000000E+00      1.0000000000E+01       kg                    1.0000000000E+00      0.0000000000E+00      1          
k_02_15                none                   factor                0.0000000000E+00      0.0000000000E+00      1.0000000000E+01       kg                    1.0000000000E+00      0.0000000000E+00      1          
k_02_16                none                   factor                0.0000000000E+00      0.0000000000E+00      1.0000000000E+01       kg                    1.0000000000E+00      0.0000000000E+00      1          
k_02_17                none                   factor                0.0000000000E+00      0.0000000000E+00      1.0000000000E+01       kg                    1.0000000000E+00      0.0000000000E+00      1          
k_02_18                none                   factor                0.0000000000E+00      0.0000000000E+00      1.0000000000E+01       kg                    1.0000000000E+00      0.0000000000E+00      1          
k_02_19                none                   factor                0.0000000000E+00      0.0000000000E+00      1.0000000000E+01       kg                    1.0000000000E+00      0.0000000000E+00      1          
k_03_00                none                   factor                0.0000000000E+00      0.0000000000E+00      1.0000000000E+01       kg                    1.0000000000E+00      0.0000000000E+00      1          
k_03_01                none                   factor                0.0000000000E+00      0.0000000000E+00      1.0000000000E+01       kg                    1.0000000000E+00      0.0000000000E+00      1          
k_03_02                none                   factor                0.0000000000E+00      0.0000000000E+00      1.0000000000E+01       kg                    1.0000000000E+00      0.0000000000E+00      1          
k_03_03                none                   factor                0.0000000000E+00      0.0000000000E+00      1.0000000000E+01       kg                    1.0000000000E+00      0.0000000000E+00      1          
k_03_04                none                   factor                0.0000000000E+00      0.0000000000E+00      1.0000000000E+01       kg                    1.0000000000E+00      0.0000000000E+00      1          
k_03_05                none                   factor                0.0000000000E+00      0.0000000000E+00      1.0000000000E+01       kg                    1.0000000000E+00      0.0000000000E+00      1          
k_03_06                none                   factor                0.0000000000E+00      0.0000000000E+00      1.0000000000E+01       kg                    1.0000000000E+00      0.0000000000E+00      1          
k_03_07                none                   factor                0.0000000000E+00      0.0000000000E+00      1.0000000000E+01       kg                    1.0000000000E+00      0.0000000000E+00      1          
k_03_08                none                   factor                0.0000000000E+00      0.0000000000E+00      1.0000000000E+01       kg                    1.0000000000E+00      0.0000000000E+00      1          
k_03_09                none                   factor                0.0000000000E+00      0.0000000000E+00      1.0000000000E+01       kg                    1.0000000000E+00      0.0000000000E+00      1          
k_03_10                none                   factor                0.0000000000E+00      0.0000000000E+00      1.0000000000E+01       kg                    1.0000000000E+00      0.0000000000E+00      1          
k_03_11                none                   factor                0.0000000000E+00      0.0000000000E+00      1.0000000000E+01       kg                    1.0000000000E+00      0.0000000000E+00      1          
k_03_12                none                   factor                0.0000000000E+00      0.0000000000E+00      1.0000000000E+01       kg                    1.0000000000E+00      0.0000000000E+00      1          
k_03_13                none                   factor                0.0000000000E+00      0.0000000000E+00      1.0000000000E+01       kg                    1.0000000000E+00      0.0000000000E+00      1          
k_03_14                none                   factor                0.0000000000E+00      0.0000000000E+00      1.0000000000E+01       kg                    1.0000000000E+00      0.0000000000E+00      1          
k_03_15                none                   factor                0.0000000000E+00      0.0000000000E+00      1.0000000000E+01       kg                    1.0000000000E+00      0.0000000000E+00      1          
k_03_16                none                   factor                0.0000000000E+00      0.0000000000E+00      1.0000000000E+01       kg                    1.0000000000E+00      0.0000000000E+00      1          
k_03_17                none                   factor                0.0000000000E+00      0.0000000000E+00      1.0000000000E+01       kg                    1.0000000000E+00      0.0000000000E+00      1          
k_03_18                none                   factor                0.0000000000E+00      0.0000000000E+00      1.0000000000E+01       kg                    1.0000000000E+00      0.0000000000E+00      1          
k_03_19                none                   factor                0.0000000000E+00      0.0000000000E+00      1.0000000000E+01       kg                    1.0000000000E+00      0.0000000000E+00      1          
k_04_00                none                   factor                0.0000000000E+00      0.0000000000E+00      1.0000000000E+01       kg                    1.0000000000E+00      0.0000000000E+00      1          
k_04_01                none                   factor                0.0000000000E+00      0.0000000000E+00      1.0000000000E+01       kg                    1.0000000000E+00      0.0000000000E+00      1          
k_04_02                none                   factor                0.0000000000E+00      0.0000000000E+00      1.0000000000E+01       kg                    1.0000000000E+00      0.0000000000E+00      1          
k_04_03                none                   factor                0.0000000000E+00      0.0000000000E+00      1.0000000000E+01       kg                    1.0000000000E+00      0.0000000000E+00      1          
k_04_04                none                   factor                0.0000000000E+00      0.0000000000E+00      1.0000000000E+01       kg                    1.0000000000E+00      0.0000000000E+00      1          
k_04_05                none                   factor                0.0000000000E+00      0.0000000000E+00      1.0000000000E+01       kg                    1.0000000000E+00      0.0000000000E+00      1          
k_04_06                none                   factor                0.0000000000E+00      0.0000000000E+00      1.0000000000E+01       kg                    1.0000000000E+00      0.0000000000E+00      1          
k_04_07                none                   factor                0.0000000000E+00      0.0000000000E+00      1.0000000000E+01       kg                    1.0000000000E+00      0.0000000000E+00      1          
k_04_08                none                   factor                0.0000000000E+00      0.0000000000E+00      1.0000000000E+01       kg                    1.0000000000E+00      0.0000000000E+00      1          
k_04_09                none                   factor                0.0000000000E+00      0.0000000000E+00      1.0000000000E+01       kg                    1.0000000000E+00      0.0000000000E+00      1          
k_04_10                none                   factor                0.0000000000E+00      0.0000000000E+00      1.0000000000E+01       kg                    1.0000000000E+00      0.0000000000E+00      1          
k_04_11                none                   factor                0.0000000000E+00      0.0000000000E+00      1.0000000000E+01       kg                    1.0000000000E+00      0.0000000000E+00      1          
k_04_12                none                   factor                0.0000000000E+00      0.0000000000E+00      1.0000000000E+01       kg                    1.0000000000E+00      0.0000000000E+00      1          
k_04_13                none                   factor                0.0000000000E+00      0.0000000000E+00      1.0000000000E+01       kg                    1.0000000000E+00      0.0000000000E+00      1          
k_04_14                none                   factor                0.0000000000E+00      0.0000000000E+00      1.0000000000E+01       kg                    1.0000000000E+00      0.0000000000E+00      1          
k_04_15                none                   factor                0.0000000000E+00      0.0000000000E+00      1.0000000000E+01       kg                    1.0000000000E+00      0.0000000000E+00      1          
k_04_16                none                   factor                0.0000000000E+00      0.0000000000E+00      1.0000000000E+01       kg                    1.0000000000E+00      0.0000000000E+00      1          
k_04_17                none                   factor                0.0000000000E+00      0.0000000000E+00      1.0000000000E+01       kg                    1.0000000000E+00      0.0000000000E+00      1          
k_04_18                none                   factor                0.0000000000E+00      0.0000000000E+00      1.0000000000E+01       kg                    1.0000000000E+00      0.0000000000E+00      1          
k_04_19                none                   factor                0.0000000000E+00      0.0000000000E+00      1.0000000000E+01       kg                    1.0000000000E+00      0.0000000000E+00      1          
k_05_00                none                   factor                0.0000000000E+00      0.0000000000E+00      1.0000000000E+01       kg                    1.0000000000E+00      0.0000000000E+00      1          
k_05_01                none                   factor                0.0000000000E+00      0.0000000000E+00      1.0000000000E+01       kg                    1.0000000000E+00      0.0000000000E+00      1          
k_05_02                none                   factor                0.0000000000E+00      0.0000000000E+00      1.0000000000E+01       kg                    1.0000000000E+00      0.0000000000E+00      1          
k_05_03                none                   factor                0.0000000000E+00      0.0000000000E+00      1.0000000000E+01       kg                    1.0000000000E+00      0.0000000000E+00      1          
k_05_04                none                   factor                0.0000000000E+00      0.0000000000E+00      1.0000000000E+01       kg                    1.0000000000E+00      0.0000000000E+00      1          
k_05_05                none                   factor                0.0000000000E+00      0.0000000000E+00      1.0000000000E+01       kg                    1.0000000000E+00      0.0000000000E+00      1          
k_05_06                none                   factor                0.0000000000E+00      0.0000000000E+00      1.0000000000E+01       kg                    1.0000000000E+00      0.0000000000E+00      1          
k_05_07                none                   factor                0.0000000000E+00      0.0000000000E+00      1.0000000000E+01       kg                    1.0000000000E+00      0.0000000000E+00      1          
k_05_08                none                   factor                0.0000000000E+00      0.0000000000E+00      1.0000000000E+01       kg                    1.0000000000E+00      0.0000000000E+00      1          
k_05_09                none                   factor                0.0000000000E+00      0.0000000000E+00      1.0000000000E+01       kg                    1.0000000000E+00      0.0000000000E+00      1          
k_05_10                none                   factor                0.0000000000E+00      0.0000000000E+00      1.0000000000E+01       kg                    1.0000000000E+00      0.0000000000E+00      1          
k_05_11                none                   factor                0.0000000000E+00      0.0000000000E+00      1.0000000000E+01       kg                    1.0000000000E+00      0.0000000000E+00      1          
k_05_12                none                   factor                0.0000000000E+00      0.0000000000E+00      1.0000000000E+01       kg                    1.0000000000E+00      0.0000000000E+00      1          
k_05_13                none                   factor                0.0000000000E+00      0.0000000000E+00      1.0000000000E+01       kg                    1.0000000000E+00      0.0000000000E+00      1          
k_05_14                none                   factor                0.0000000000E+00      0.0000000000E+00      1.0000000000E+01       kg                    1.0000000000E+00      0.0000000000E+00      1          
k_05_15                none                   factor                0.0000000000E+00      0.0000000000E+00      1.0000000000E+01       kg                    1.0000000000E+00      0.0000000000E+00      1          
k_05_16                none                   factor                0.0000000000E+00      0.0000000000E+00      1.0000000000E+01       kg                    1.0000000000E+00      0.0000000000E+00      1          
k_05_17                none                   factor                0.0000000000E+00      0.0000000000E+00      1.0000000000E+01       kg                    1.0000000000E+00      0.0000000000E+00      1          
k_05_18                none                   factor                0.0000000000E+00      0.0000000000E+00      1.0000000000E+01       kg                    1.0000000000E+00      0.0000000000E+00      1          
k_05_19                none                   factor                0.0000000000E+00      0.0000000000E+00      1.0000000000E+01       kg                    1.0000000000E+00      0.0000000000E+00      1          
k_06_00                none                   factor                0.0000000000E+00      0.0000000000E+00      1.0000000000E+01       kg                    1.0000000000E+00      0.0000000000E+00      1          
k_06_01                none                   factor                0.0000000000E+00      0.0000000000E+00      1.0000000000E+01       kg                    1.0000000000E+00      0.0000000000E+00      1          
k_06_02                none                   factor                0.0000000000E+00      0.0000000000E+00      1.0000000000E+01       kg                    1.0000000000E+00      0.0000000000E+00      1          
k_06_03                none                   factor                0.0000000000E+00      0.0000000000E+00      1.0000000000E+01       kg                    1.0000000000E+00      0.0000000000E+00      1          
k_06_04                none                   factor                0.0000000000E+00      0.0000000000E+00      1.0000000000E+01       kg                    1.0000000000E+00      0.0000000000E+00      1          
k_06_05                none                   factor                0.0000000000E+00      0.0000000000E+00      1.0000000000E+01       kg                    1.0000000000E+00      0.0000000000E+00      1          
k_06_06                none                   factor                0.0000000000E+00      0.0000000000E+00      1.0000000000E+01       kg                    1.0000000000E+00      0.0000000000E+00      1          
k_06_07                none                   factor                0.0000000000E+00      0.0000000000E+00      1.0000000000E+01       kg                    1.0000000000E+00      0.0000000000E+00      1          
k_06_08                none                   factor                0.0000000000E+00      0.0000000000E+00      1.0000000000E+01       kg                    1.0000000000E+00      0.0000000000E+00      1          
k_06_09                none                   factor                0.0000000000E+00      0.0000000000E+00      1.0000000000E+01       kg                    1.0000000000E+00      0.0000000000E+00      1          
k_06_10                none                   factor                0.0000000000E+00      0.0000000000E+00      1.0000000000E+01       kg                    1.0000000000E+00      0.0000000000E+00      1          
k_06_11                none                   factor                0.0000000000E+00      0.0000000000E+00      1.0000000000E+01       kg                    1.0000000000E+00      0.0000000000E+00      1          
k_06_12                none                   factor                0.0000000000E+00      0.0000000000E+00      1.0000000000E+01       kg                    1.0000000000E+00      0.0000000000E+00      1          
k_06_13                none                   factor                0.0000000000E+00      0.0000000000E+00      1.0000000000E+01       kg                    1.0000000000E+00      0.0000000000E+00      1          
k_06_14                none                   factor                0.0000000000E+00      0.0000000000E+00      1.0000000000E+01       kg                    1.0000000000E+00      0.0000000000E+00      1          