pcf
* control data
             restart          estimation
         0       721         0         0        17         0
         0         3              single               point         1         0         0          noobsreref
   2.000000E+01  -3.000000E+00   3.000000E-01   1.000000E-02        -7       999          lamforgive        noderforgive
   1.000000E+01   1.000000E+01   1.000000E-03         0         0
   1.000000E-01         1   1.100000E+00               noaui          nosenreuse        noboundscale
         0   1.000000E-02         3         3   1.000000E-02         3   0.000000E+00         1  -1.000000E+00
         0         0         0         0             jcosave          verboserec          jcosaveitn          reisaveitn          parsaveitn        noparsaverun
* singular value decomposition
         1
  10000000    1.000000E-06
1
* parameter groups
Empty DataFrame
Columns: [pargpnme, inctyp, derinc, derinclb, forcen, derincmul, dermthd, splitthresh, splitreldiff, splitaction]
Index: []
* parameter data
Empty DataFrame
Columns: [parnme, partrans, parchglim, parval1, parlbnd, parubnd, pargp, scale, offset, dercom]
Index: []
* observation groups
flx_constan          
flx_in-out           
flx_percent          
flx_recharg          
flx_storage          
flx_stream_          
flx_total            
flx_wells            
hds                  
vol_constan          
vol_in-out           
vol_percent          
vol_recharg          
vol_storage          
vol_stream_          
vol_total            
vol_wells            
* observation data
flx_constan_19791230  -8.6005180000E+02     1.0000000000E+00       flx_constan          
flx_in-out_19791230   -2.9966000000E+00     1.0000000000E+00       flx_in-out           
flx_percent_19791230  -5.0000001000E-02     1.0000000000E+00       flx_percent          
flx_recharg_19791230  6.0048000000E+03      1.0000000000E+00       flx_recharg          
flx_storage_19791230  0.0000000000E+00      1.0000000000E+00       flx_storage          
flx_stream__19791230  -3.2426250000E+03     1.0000000000E+00       flx_stream_          
flx_total_19791230    -2.9965820000E+00     1.0000000000E+00       flx_total            
flx_wells_19791230    -1.9051200000E+03     1.0000000000E+00       flx_wells            
hds_00_000_000_000    3.0512041092E+01      1.0000000000E+00       hds                  
hds_00_000_001_000    3.0439937592E+01      1.0000000000E+00       hds                  
hds_00_000_002_000    3.0279338837E+01      1.0000000000E+00       hds                  
hds_00_000_003_000    3.0009550095E+01      1.0000000000E+00       hds                  
hds_00_000_004_000    2.9700403214E+01      1.0000000000E+00       hds                  
hds_00_000_005_000    2.9360172272E+01      1.0000000000E+00       hds                  
hds_00_000_006_000    2.8920494080E+01      1.0000000000E+00       hds                  
hds_00_000_007_000    2.8552474976E+01      1.0000000000E+00       hds                  
hds_00_000_008_000    2.8126886368E+01      1.0000000000E+00       hds                  
hds_00_000_009_000    2.7676261902E+01      1.0000000000E+00       hds                  
hds_00_000_010_000    2.7199520111E+01      1.0000000000E+00       hds                  
hds_00_000_011_000    2.6730268478E+01      1.0000000000E+00       hds                  
hds_00_000_012_000    2.6264507294E+01      1.0000000000E+00       hds                  
hds_00_000_013_000    2.5807264328E+01      1.0000000000E+00       hds                  
hds_00_000_014_000    2.5420825958E+01      1.0000000000E+00       hds                  
hds_00_000_015_000    2.5059366226E+01      1.0000000000E+00       hds                  
hds_00_000_016_000    2.5014867783E+01      1.0000000000E+00       hds                  
hds_00_000_017_000    2.4989711761E+01      1.0000000000E+00       hds                  
hds_00_000_018_000    2.4982011795E+01      1.0000000000E+00       hds                  
hds_00_000_019_000    2.4984384537E+01      1.0000000000E+00       hds                  
hds_00_001_000_000    3.0535581589E+01      1.0000000000E+00       hds                  
hds_00_001_001_000    3.0457975388E+01      1.0000000000E+00       hds                  
hds_00_001_002_000    3.0292457581E+01      1.0000000000E+00       hds                  
hds_00_001_003_000    3.0005708694E+01      1.0000000000E+00       hds                  
hds_00_001_004_000    2.9718561172E+01      1.0000000000E+00       hds                  
hds_00_001_005_000    2.9366958618E+01      1.0000000000E+00       hds                  
hds_00_001_006_000    2.8927778244E+01      1.0000000000E+00       hds                  
hds_00_001_007_000    2.8531343460E+01      1.0000000000E+00       hds                  
hds_00_001_008_000    2.8113857269E+01      1.0000000000E+00       hds                  
hds_00_001_009_000    2.7619689941E+01      1.0000000000E+00       hds                  
hds_00_001_010_000    2.7131404877E+01      1.0000000000E+00       hds                  
hds_00_001_011_000    2.6669115067E+01      1.0000000000E+00       hds                  
hds_00_001_012_000    2.6204805374E+01      1.0000000000E+00       hds                  
hds_00_001_013_000    2.5730932236E+01      1.0000000000E+00       hds                  
hds_00_001_014_000    2.5340332031E+01      1.0000000000E+00       hds                  
hds_00_001_015_000    2.4932224274E+01      1.0000000000E+00       hds                  
hds_00_001_016_000    2.4935112000E+01      1.0000000000E+00       hds                  
hds_00_001_017_000    2.4930774689E+01      1.0000000000E+00       hds                  
hds_00_001_018_000    2.4931133270E+01      1.0000000000E+00       hds                  
hds_00_001_019_000    2.4935451508E+01      1.0000000000E+00       hds                  
hds_00_002_000_000    3.0572933197E+01      1.0000000000E+00       hds                  
hds_00_002_001_000    3.0496498108E+01      1.0000000000E+00       hds                  
hds_00_002_002_000    3.0318349838E+01      1.0000000000E+00       hds                  
hds_00_002_003_000    3.0022253036E+01      1.0000000000E+00       hds                  
hds_00_002_004_000    2.9741128922E+01      1.0000000000E+00       hds                  
hds_00_002_005_000    2.9379617691E+01      1.0000000000E+00       hds                  
hds_00_002_006_000    2.8912908554E+01      1.0000000000E+00       hds                  
hds_00_002_007_000    2.8516103745E+01      1.0000000000E+00       hds                  
hds_00_002_008_000    2.8050027847E+01      1.0000000000E+00       hds                  
hds_00_002_009_000    2.7547859192E+01      1.0000000000E+00       hds                  
hds_00_002_010_000    2.7016647339E+01      1.0000000000E+00       hds                  
hds_00_002_011_000    2.6546882629E+01      1.0000000000E+00       hds                  
hds_00_002_012_000    2.6059150696E+01      1.0000000000E+00       hds                  
hds_00_002_013_000    2.5609296799E+01      1.0000000000E+00       hds                  
hds_00_002_014_000    2.5217866898E+01      1.0000000000E+00       hds                  
hds_00_002_015_000    2.4759901047E+01      1.0000000000E+00       hds                  
hds_00_002_016_000    2.4791843414E+01      1.0000000000E+00       hds                  
hds_00_002_017_000    2.4811517715E+01      1.0000000000E+00       hds                  
hds_00_002_018_000    2.4827741623E+01      1.0000000000E+00       hds                  
hds_00_002_019_000    2.4837488174E+01      1.0000000000E+00       hds                  
hds_00_003_000_000    3.0650827408E+01      1.0000000000E+00       hds                  
hds_00_003_001_000    3.0559768677E+01      1.0000000000E+00       hds                  
hds_00_003_002_000    3.0366338730E+01      1.0000000000E+00       hds                  
hds_00_003_003_000    3.0070295334E+01      1.0000000000E+00       hds                  
hds_00_003_004_000    2.9766510010E+01      1.0000000000E+00       hds                  
hds_00_003_005_000    2.9403278351E+01      1.0000000000E+00       hds                  
hds_00_003_006_000    2.8904382706E+01      1.0000000000E+00       hds                  
hds_00_003_007_000    2.8449235916E+01      1.0000000000E+00       hds                  
hds_00_003_008_000    2.7976943970E+01      1.0000000000E+00       hds                  
hds_00_003_009_000    2.7367559433E+01      1.0000000000E+00       hds                  
hds_00_003_010_000    2.6820844650E+01      1.0000000000E+00       hds                  
hds_00_003_011_000    2.6349199295E+01      1.0000000000E+00       hds                  
hds_00_003_012_000    2.5882984161E+01      1.0000000000E+00       hds                  
hds_00_003_013_000    2.5446241379E+01      1.0000000000E+00       hds                  
hds_00_003_014_000    2.5018367767E+01      1.0000000000E+00       hds                  
hds_00_003_015_000    2.4532850266E+01      1.0000000000E+00       hds                  
hds_00_003_016_000    2.4615484238E+01      1.0000000000E+00       hds                  
hds_00_003_017_000    2.4653608322E+01      1.0000000000E+00       hds                  
hds_00_003_018_000    2.4680778503E+01      1.0000000000E+00       hds                  
hds_00_003_019_000    2.4693912506E+01      1.0000000000E+00       hds                  
hds_00_004_000_000    3.0757520676E+01      1.0000000000E+00       hds                  
hds_00_004_001_000    3.0647590637E+01      1.0000000000E+00       hds                  
hds_00_004_002_000    3.0437744141E+01      1.0000000000E+00       hds                  
hds_00_004_003_000    3.0147104263E+01      1.0000000000E+00       hds                  
hds_00_004_004_000    2.9819288254E+01      1.0000000000E+00       hds                  
hds_00_004_005_000    2.9410051346E+01      1.0000000000E+00       hds                  
hds_00_004_006_000    2.8895395279E+01      1.0000000000E+00       hds                  
hds_00_004_007_000    2.8413171768E+01      1.0000000000E+00       hds                  
hds_00_004_008_000    2.7777473450E+01      1.0000000000E+00       hds                  
hds_00_004_009_000    2.7157875061E+01      1.0000000000E+00       hds                  
hds_00_004_010_000    2.6623794556E+01      1.0000000000E+00       hds                  
hds_00_004_011_000    2.6155000687E+01      1.0000000000E+00       hds                  
hds_00_004_012_000    2.5677148819E+01      1.0000000000E+00       hds                  
hds_00_004_013_000    2.5230007172E+01      1.0000000000E+00       hds                  
hds_00_004_014_000    2.4803712845E+01      1.0000000000E+00       hds                  
hds_00_004_015_000    2.4299720764E+01      1.0000000000E+00       hds                  
hds_00_004_016_000    2.4370843887E+01      1.0000000000E+00       hds                  
hds_00_004_017_000    2.4452022552E+01      1.0000000000E+00       hds                  
hds_00_004_018_000    2.4489772797E+01      1.0000000000E+00       hds                  
hds_00_004_019_000    2.4512916565E+01      1.0000000000E+00       hds                  
hds_00_005_000_000    3.0861282349E+01      1.0000000000E+00       hds                  
hds_00_005_001_000    3.0776662827E+01      1.0000000000E+00       hds                  
hds_00_005_002_000    3.0558053970E+01      1.0000000000E+00       hds                  
hds_00_005_003_000    3.0257057190E+01      1.0000000000E+00       hds                  
hds_00_005_004_000    2.9882102966E+01      1.0000000000E+00       hds                  
hds_00_005_005_000    2.9419298172E+01      1.0000000000E+00       hds                  
hds_00_005_006_000    2.8876232147E+01      1.0000000000E+00       hds                  
hds_00_005_007_000    2.8234163284E+01      1.0000000000E+00       hds                  
hds_00_005_008_000    2.7640104294E+01      1.0000000000E+00       hds                  
hds_00_005_009_000    2.6955722809E+01      1.0000000000E+00       hds                  
hds_00_005_010_000    2.6360349655E+01      1.0000000000E+00       hds                  
hds_00_005_011_000    2.5891918182E+01      1.0000000000E+00       hds                  
hds_00_005_012_000    2.5416706085E+01      1.0000000000E+00       hds                  
hds_00_005_013_000    2.4983854294E+01      1.0000000000E+00       hds                  
hds_00_005_014_000    2.4546031952E+01      1.0000000000E+00       hds                  
hds_00_005_015_000    2.4034963608E+01      1.0000000000E+00       hds                  
hds_00_005_016_000    2.4121997833E+01      1.0000000000E+00       hds                  
hds_00_005_017_000    2.4207208633E+01      1.0000000000E+00       hds                  
hds_00_005_018_000    2.4283456802E+01      1.0000000000E+00       hds                  
hds_00_005_019_000    2.4307624817E+01      1.0000000000E+00       hds                  
hds_00_006_000_000    3.0972980499E+01      1.0000000000E+00       hds                  
hds_00_006_001_000    3.0889274597E+01      1.0000000000E+00       hds                  
hds_00_006_002_000    3.0710903168E+01      1.0000000000E+00       hds                  
hds_00_006_003_000    3.0390439987E+01      1.0000000000E+00       hds                  
hds_00_006_004_000    2.9973041534E+01      1.0000000000E+00       hds                  
hds_00_006_005_000    2.9401218414E+01      1.0000000000E+00       hds                  
hds_00_006_006_000    2.8829030991E+01      1.0000000000E+00       hds                  
hds_00_006_007_000    2.8043037415E+01      1.0000000000E+00       hds                  
hds_00_006_008_000    2.7349832535E+01      1.0000000000E+00       hds                  
hds_00_006_009_000    2.6629232407E+01      1.0000000000E+00       hds                  
hds_00_006_010_000    2.6058902740E+01      1.0000000000E+00       hds                  
hds_00_006_011_000    2.5562435150E+01      1.0000000000E+00       hds                  
hds_00_006_012_000    2.5097805023E+01      1.0000000000E+00       hds                  
hds_00_006_013_000    2.4662298203E+01      1.0000000000E+00       hds                  
hds_00_006_014_000    2.4184267044E+01      1.0000000000E+00       hds                  
hds_00_006_015_000    2.3712896347E+01      1.0000000000E+00       hds                  
hds_00_006_016_000    2.3836044312E+01      1.0000000000E+00       hds                  
hds_00_006_017_000    2.3951370239E+01      1.0000000000E+00       hds                  
hds_00_006_018_000    2.4033157349E+01      1.0000000000E+00       hds                  
hds_00_006_019_000    2.4072519302E+01      1.0000000000E+00       hds                  
hds_00_007_000_000    3.1141435623E+01      1.0000000000E+00       hds                  
hds_00_007_001_000    3.1047061920E+01      1.0000000000E+00       hds                  
hds_00_007_002_000    3.0880302429E+01      1.0000000000E+00       hds                  
hds_00_007_003_000    3.0592710495E+01      1.0000000000E+00       hds                  
hds_00_007_004_000    3.0058084488E+01      1.0000000000E+00       hds                  
hds_00_007_005_000    2.9421091080E+01      1.0000000000E+00       hds                  
hds_00_007_006_000    2.8743646622E+01      1.0000000000E+00       hds                  
hds_00_007_007_000    2.7755067825E+01      1.0000000000E+00       hds                  
hds_00_007_008_000    2.6914968491E+01      1.0000000000E+00       hds                  
hds_00_007_009_000    2.6224670410E+01      1.0000000000E+00       hds                  
hds_00_007_010_000    2.5670583725E+01      1.0000000000E+00       hds                  
hds_00_007_011_000    2.5167858124E+01      1.0000000000E+00       hds                  
hds_00_007_012_000    2.4720520020E+01      1.0000000000E+00       hds                  
hds_00_007_013_000    2.4245422363E+01      1.0000000000E+00       hds                  
hds_00_007_014_000    2.3737016678E+01      1.0000000000E+00       hds                  
hds_00_007_015_000    2.3260475159E+01      1.0000000000E+00       hds                  
hds_00_007_016_000    2.3448226929E+01      1.0000000000E+00       hds                  
hds_00_007_017_000    2.3653146744E+01      1.0000000000E+00       hds                  
hds_00_007_018_000    2.3771234512E+01      1.0000000000E+00       hds                  
hds_00_007_019_000    2.3836708069E+01      1.0000000000E+00       hds                  
hds_00_008_000_000    3.1294851303E+01      1.0000000000E+00       hds                  
hds_00_008_001_000    3.1230667114E+01      1.0000000000E+00       hds                  
hds_00_008_002_000    3.1121335983E+01      1.0000000000E+00       hds                  
hds_00_008_003_000    3.1029104233E+01      1.0000000000E+00       hds                  
hds_00_008_007_000    2.6941825867E+01      1.0000000000E+00       hds                  
hds_00_008_008_000    2.6207658768E+01      1.0000000000E+00       hds                  
hds_00_008_009_000    2.5734928131E+01      1.0000000000E+00       hds                  
hds_00_008_010_000    2.5257160187E+01      1.0000000000E+00       hds                  
hds_00_008_011_000    2.4751045227E+01      1.0000000000E+00       hds                  
hds_00_008_012_000    2.4279680252E+01      1.0000000000E+00       hds                  
hds_00_008_013_000    2.3825166702E+01      1.0000000000E+00       hds                  
hds_00_008_014_000    2.3246278763E+01      1.0000000000E+00       hds                  
hds_00_008_015_000    2.2214475632E+01      1.0000000000E+00       hds                  
hds_00_008_016_000    2.3008758545E+01      1.0000000000E+00       hds                  
hds_00_008_017_000    2.3345529556E+01      1.0000000000E+00       hds                  
hds_00_008_018_000    2.3524271011E+01      1.0000000000E+00       hds                  
hds_00_008_019_000    2.3596155167E+01      1.0000000000E+00       hds                  
hds_00_009_000_000    3.1448045731E+01      1.0000000000E+00       hds                  
hds_00_009_001_000    3.1396732330E+01      1.0000000000E+00       hds                  
hds_00_009_002_000    3.1347011566E+01      1.0000000000E+00       hds                  
hds_00_009_003_000    3.1285825729E+01      1.0000000000E+00       hds                  
hds_00_009_008_000    2.5555337906E+01      1.0000000000E+00       hds                  
hds_00_009_009_000    2.5261613846E+01      1.0000000000E+00       hds                  
hds_00_009_010_000    2.4820096970E+01      1.0000000000E+00       hds                  
hds_00_009_011_000    2.4320049286E+01      1.0000000000E+00       hds                  
hds_00_009_012_000    2.3756620407E+01      1.0000000000E+00       hds                  
hds_00_009_013_000    2.3441137314E+01      1.0000000000E+00       hds                  
hds_00_009_014_000    2.3094507217E+01      1.0000000000E+00       hds                  
hds_00_009_015_000    2.2713178635E+01      1.0000000000E+00       hds                  
hds_00_009_016_000    2.2944917679E+01      1.0000000000E+00       hds                  
hds_00_009_017_000    2.3169834137E+01      1.0000000000E+00       hds                  
hds_00_009_018_000    2.3323211670E+01      1.0000000000E+00       hds                  
hds_00_009_019_000    2.3392890930E+01      1.0000000000E+00       hds                  
hds_00_010_000_000    3.1552640915E+01      1.0000000000E+00       hds                  
hds_00_010_001_000    3.1525838852E+01      1.0000000000E+00       hds                  
hds_00_010_002_000    3.1490793228E+01      1.0000000000E+00       hds                  
hds_00_010_003_000    3.1466171265E+01      1.0000000000E+00       hds                  
hds_00_010_008_000    2.5065710068E+01      1.0000000000E+00       hds                  
hds_00_010_009_000    2.4838495255E+01      1.0000000000E+00       hds                  
hds_00_010_010_000    2.4452770233E+01      1.0000000000E+00       hds                  
hds_00_010_011_000    2.3856813431E+01      1.0000000000E+00       hds                  
hds_00_010_012_000    2.2783039093E+01      1.0000000000E+00       hds                  
hds_00_010_013_000    2.3059713364E+01      1.0000000000E+00       hds                  
hds_00_010_014_000    2.2909646988E+01      1.0000000000E+00       hds                  
hds_00_010_015_000    2.2646574020E+01      1.0000000000E+00       hds                  
hds_00_010_016_000    2.2831729889E+01      1.0000000000E+00       hds                  
hds_00_010_017_000    2.3008117676E+01      1.0000000000E+00       hds                  
hds_00_010_018_000    2.3132987976E+01      1.0000000000E+00       hds                  
hds_00_010_019_000    2.3200815201E+01      1.0000000000E+00       hds                  
hds_00_011_000_000    3.1597625732E+01      1.0000000000E+00       hds                  
hds_00_011_001_000    3.1591131210E+01      1.0000000000E+00       hds                  
hds_00_011_002_000    3.1575351715E+01      1.0000000000E+00       hds                  
hds_00_011_003_000    3.1558582306E+01      1.0000000000E+00       hds                  
hds_00_011_008_000    2.4680677414E+01      1.0000000000E+00       hds                  
hds_00_011_009_000    2.4510162354E+01      1.0000000000E+00       hds                  
hds_00_011_010_000    2.4178939819E+01      1.0000000000E+00       hds                  
hds_00_011_011_000    2.3741876602E+01      1.0000000000E+00       hds                  
hds_00_011_012_000    2.3208335876E+01      1.0000000000E+00       hds                  
hds_00_011_013_000    2.2998584747E+01      1.0000000000E+00       hds                  
hds_00_011_014_000    2.2770675659E+01      1.0000000000E+00       hds                  
hds_00_011_015_000    2.2458667755E+01      1.0000000000E+00       hds                  
hds_00_011_016_000    2.2679059982E+01      1.0000000000E+00       hds                  
hds_00_011_017_000    2.2827562332E+01      1.0000000000E+00       hds                  
hds_00_011_018_000    2.2945798874E+01      1.0000000000E+00       hds                  
hds_00_011_019_000    2.2999582291E+01      1.0000000000E+00       hds                  
hds_00_012_000_000    3.1605211258E+01      1.0000000000E+00       hds                  
hds_00_012_001_000    3.1601203918E+01      1.0000000000E+00       hds                  
hds_00_012_002_000    3.1591260910E+01      1.0000000000E+00       hds                  
hds_00_012_003_000    3.1575407028E+01      1.0000000000E+00       hds                  
hds_00_012_008_000    2.4410919189E+01      1.0000000000E+00       hds                  
hds_00_012_009_000    2.4272649765E+01      1.0000000000E+00       hds                  
hds_00_012_010_000    2.3970987320E+01      1.0000000000E+00       hds                  
hds_00_012_011_000    2.3611902237E+01      1.0000000000E+00       hds                  
hds_00_012_012_000    2.3241207123E+01      1.0000000000E+00       hds                  
hds_00_012_013_000    2.2924854279E+01      1.0000000000E+00       hds                  
hds_00_012_014_000    2.2621742249E+01      1.0000000000E+00       hds                  
hds_00_012_015_000    2.2267618179E+01      1.0000000000E+00       hds                  
hds_00_012_016_000    2.2489566803E+01      1.0000000000E+00       hds                  
hds_00_012_017_000    2.2639219284E+01      1.0000000000E+00       hds                  
hds_00_012_018_000    2.2748960495E+01      1.0000000000E+00       hds                  
hds_00_012_019_000    2.2803634644E+01      1.0000000000E+00       hds                  
hds_00_013_000_000    3.1563749313E+01      1.0000000000E+00       hds                  
hds_00_013_001_000    3.1562311172E+01      1.0000000000E+00       hds                  
hds_00_013_002_000    3.1546436310E+01      1.0000000000E+00       hds                  
hds_00_013_003_000    3.1530538559E+01      1.0000000000E+00       hds                  
hds_00_013_008_000    2.4218065262E+01      1.0000000000E+00       hds                  
hds_00_013_009_000    2.4079399109E+01      1.0000000000E+00       hds                  
hds_00_013_010_000    2.3818508148E+01      1.0000000000E+00       hds                  
hds_00_013_011_000    2.3505716324E+01      1.0000000000E+00       hds                  
hds_00_013_012_000    2.3147937775E+01      1.0000000000E+00       hds                  
hds_00_013_013_000    2.2802932739E+01      1.0000000000E+00       hds                  
hds_00_013_014_000    2.2469062805E+01      1.0000000000E+00       hds                  
hds_00_013_015_000    2.2061990738E+01      1.0000000000E+00       hds                  
hds_00_013_016_000    2.2297849655E+01      1.0000000000E+00       hds                  
hds_00_013_017_000    2.2448455811E+01      1.0000000000E+00       hds                  
hds_00_013_018_000    2.2539669037E+01      1.0000000000E+00       hds                  
hds_00_013_019_000    2.2580123901E+01      1.0000000000E+00       hds                  
hds_00_014_000_000    3.1466913223E+01      1.0000000000E+00       hds                  
hds_00_014_001_000    3.1466581345E+01      1.0000000000E+00       hds                  
hds_00_014_002_000    3.1450677872E+01      1.0000000000E+00       hds                  
hds_00_014_003_000    3.1441417694E+01      1.0000000000E+00       hds                  
hds_00_014_008_000    2.4054613113E+01      1.0000000000E+00       hds                  
hds_00_014_009_000    2.3928981781E+01      1.0000000000E+00       hds                  
hds_00_014_010_000    2.3664052963E+01      1.0000000000E+00       hds                  
hds_00_014_011_000    2.3352001190E+01      1.0000000000E+00       hds                  
hds_00_014_012_000    2.3016502380E+01      1.0000000000E+00       hds                  
hds_00_014_013_000    2.2659294128E+01      1.0000000000E+00       hds                  
hds_00_014_014_000    2.2265399933E+01      1.0000000000E+00       hds                  
hds_00_014_015_000    2.1811012268E+01      1.0000000000E+00       hds                  
hds_00_014_016_000    2.2087104797E+01      1.0000000000E+00       hds                  
hds_00_014_017_000    2.2241991043E+01      1.0000000000E+00       hds                  
hds_00_014_018_000    2.2338117599E+01      1.0000000000E+00       hds                  
hds_00_014_019_000    2.2379272461E+01      1.0000000000E+00       hds                  
hds_00_015_000_000    3.1328298569E+01      1.0000000000E+00       hds                  
hds_00_015_001_000    3.1324380875E+01      1.0000000000E+00       hds                  
hds_00_015_002_000    3.1309297562E+01      1.0000000000E+00       hds                  
hds_00_015_003_000    3.1304800034E+01      1.0000000000E+00       hds                  
hds_00_015_008_000    2.3924367905E+01      1.0000000000E+00       hds                  
hds_00_015_009_000    2.3782705307E+01      1.0000000000E+00       hds                  
hds_00_015_010_000    2.3516952515E+01      1.0000000000E+00       hds                  
hds_00_015_011_000    2.3179306030E+01      1.0000000000E+00       hds                  
hds_00_015_012_000    2.2832881927E+01      1.0000000000E+00       hds                  
hds_00_015_013_000    2.2452404022E+01      1.0000000000E+00       hds                  
hds_00_015_014_000    2.2038980484E+01      1.0000000000E+00       hds                  
hds_00_015_015_000    2.1560775757E+01      1.0000000000E+00       hds                  
hds_00_015_016_000    2.1854431152E+01      1.0000000000E+00       hds                  
hds_00_015_017_000    2.2028947830E+01      1.0000000000E+00       hds                  
hds_00_015_018_000    2.2135164261E+01      1.0000000000E+00       hds                  
hds_00_015_019_000    2.2180366516E+01      1.0000000000E+00       hds                  
hds_00_016_000_000    3.1128526688E+01      1.0000000000E+00       hds                  
hds_00_016_001_000    3.1115434647E+01      1.0000000000E+00       hds                  
hds_00_016_002_000    3.1112823486E+01      1.0000000000E+00       hds                  
hds_00_016_003_000    3.1117454529E+01      1.0000000000E+00       hds                  
hds_00_016_008_000    2.3820533752E+01      1.0000000000E+00       hds                  
hds_00_016_009_000    2.3681417465E+01      1.0000000000E+00       hds                  
hds_00_016_010_000    2.3369270325E+01      1.0000000000E+00       hds                  
hds_00_016_011_000    2.3006326675E+01      1.0000000000E+00       hds                  
hds_00_016_012_000    2.2620862961E+01      1.0000000000E+00       hds                  
hds_00_016_013_000    2.2204446793E+01      1.0000000000E+00       hds                  
hds_00_016_014_000    2.1779384613E+01      1.0000000000E+00       hds                  
hds_00_016_015_000    2.1297609329E+01      1.0000000000E+00       hds                  
hds_00_016_016_000    2.1605333328E+01      1.0000000000E+00       hds                  
hds_00_016_017_000    2.1813438416E+01      1.0000000000E+00       hds                  
hds_00_016_018_000    2.1922946930E+01      1.0000000000E+00       hds                  
hds_00_016_019_000    2.1968475342E+01      1.0000000000E+00       hds                  
hds_00_017_000_000    3.0907260895E+01      1.0000000000E+00       hds                  
hds_00_017_001_000    3.0891435623E+01      1.0000000000E+00       hds                  
hds_00_017_002_000    3.0871757507E+01      1.0000000000E+00       hds                  
hds_00_017_003_000    3.0875862122E+01      1.0000000000E+00       hds                  
hds_00_017_008_000    2.3779842377E+01      1.0000000000E+00       hds                  
hds_00_017_009_000    2.3611030579E+01      1.0000000000E+00       hds                  